@<TRIPOS>MOLECULE
guest-5_confgen4.mol2 : confsearch ligand conformer 1
          22          22           1
SMALL
USER_CHARGES
 
@<TRIPOS>ATOM
       1    C1      20.498348   19.373481   21.013242 C.3        1 MOL1        -0.1685
       2    H1      21.444184   19.851634   21.298805 H          1 MOL1         0.0832
       3    H2      20.615223   19.122681   19.950157 H          1 MOL1         0.0832
       4    C2      19.334764   20.387333   21.155851 C.3        1 MOL1        -0.1685
       5    H3      19.558924   21.241874   20.502868 H          1 MOL1         0.0832
       6    H4      18.410759   19.944687   20.759742 H          1 MOL1         0.0832
       7    C3      19.068228   20.929689   22.587442 C.3        1 MOL1        -0.1685
       8    H5      18.186299   20.437964   23.018048 H          1 MOL1         0.0832
       9    H6      18.789576   21.989097   22.505942 H          1 MOL1         0.0832
      10    C4      20.262106   20.803978   23.570582 C.3        1 MOL1        -0.1761
      11    H7      21.156319   21.240455   23.108524 H          1 MOL1         0.0832
      12    H8      20.058140   21.438328   24.443728 H          1 MOL1         0.0832
      13    C5      20.591116   19.363187   24.060220 C.3        1 MOL1         0.1218
      14    H9      21.678999   19.220777   23.987443 H          1 MOL1         0.0789
      15    C6      19.900390   18.211408   23.287846 C.3        1 MOL1        -0.1761
      16    H10     20.112138   17.263378   23.799178 H          1 MOL1         0.0832
      17    H11     18.811638   18.329344   23.345284 H          1 MOL1         0.0832
      18    C7      20.325454   18.056697   21.806228 C.3        1 MOL1        -0.1685
      19    H12     21.274895   17.505664   21.764529 H          1 MOL1         0.0832
      20    H13     19.586847   17.423310   21.296372 H          1 MOL1         0.0832
      21    O1      20.205593   19.252227   25.425590 O.3        1 MOL1        -0.5509
      22    H14     20.475313   18.358611   25.723717 H          1 MOL1         0.3779
@<TRIPOS>BOND
    1     1     2    1
    2     1     3    1
    3     1     4    1
    4     4     5    1
    5     4     6    1
    6     4     7    1
    7     7     8    1
    8     7     9    1
    9     7    10    1
   10    10    11    1
   11    10    12    1
   12    10    13    1
   13    13    14    1
   14    13    15    1
   15    15    16    1
   16    15    17    1
   17     1    18    1
   18    15    18    1
   19    18    19    1
   20    18    20    1
   21    13    21    1
   22    21    22    1
@<TRIPOS>SUBSTRUCTURE
       1 MOL1            1 RESIDUE      1      MOL     
@<SCITEGIC>MOL_PROPERTY
VConf Rank
SciTegic.value.IntegerValue
1

@<SCITEGIC>MOL_PROPERTY
Conf_Id
SciTegic.value.IntegerValue
141

@<SCITEGIC>MOL_PROPERTY
Delta U+W
SciTegic.value.DoubleValue
0.000

@<SCITEGIC>MOL_PROPERTY
U+W
SciTegic.value.DoubleValue
6.423

@<SCITEGIC>MOL_PROPERTY
Grad RMS
SciTegic.value.DoubleValue
0.000000

@<SCITEGIC>MOL_PROPERTY
U
SciTegic.value.DoubleValue
8.781

@<SCITEGIC>MOL_PROPERTY
W
SciTegic.value.DoubleValue
-2.358

@<SCITEGIC>MOL_PROPERTY
W(PB)
SciTegic.value.DoubleValue
-4.373

@<SCITEGIC>MOL_PROPERTY
W(SA)
SciTegic.value.DoubleValue
2.015

@<SCITEGIC>MOL_PROPERTY
Valence
SciTegic.value.DoubleValue
13.328

@<SCITEGIC>MOL_PROPERTY
Coulomb
SciTegic.value.DoubleValue
-8.387

@<SCITEGIC>MOL_PROPERTY
VdW
SciTegic.value.DoubleValue
3.840

@<SCITEGIC>MOL_PROPERTY
VdW6
SciTegic.value.DoubleValue
-9.744

@<SCITEGIC>MOL_PROPERTY
VdW12
SciTegic.value.DoubleValue
13.584

@<SCITEGIC>MOL_PROPERTY
Bond
SciTegic.value.DoubleValue
0.436

@<SCITEGIC>MOL_PROPERTY
Angle
SciTegic.value.DoubleValue
3.478

@<SCITEGIC>MOL_PROPERTY
Pdih
SciTegic.value.DoubleValue
9.415

@<SCITEGIC>MOL_PROPERTY
Idih
SciTegic.value.DoubleValue
0.000

@<SCITEGIC>MOL_PROPERTY
Tether
SciTegic.value.DoubleValue
0.000

@<TRIPOS>MOLECULE
guest-5_confgen4.mol2 : confsearch ligand conformer 2
          22          22           1
SMALL
USER_CHARGES
 
@<TRIPOS>ATOM
       1    C1      20.440435   19.260968   21.006810 C.3        1 MOL1        -0.1685
       2    H1      21.477253   19.517376   21.263467 H          1 MOL1         0.0832
       3    H2      20.459413   18.932570   19.958621 H          1 MOL1         0.0832
       4    C2      19.524902   20.506015   21.092324 C.3        1 MOL1        -0.1685
       5    H3      19.799065   21.198098   20.284419 H          1 MOL1         0.0832
       6    H4      18.486542   20.208967   20.891203 H          1 MOL1         0.0832
       7    C3      19.585684   21.278458   22.430221 C.3        1 MOL1        -0.1685
       8    H5      18.848008   22.091503   22.389997 H          1 MOL1         0.0832
       9    H6      20.565082   21.767031   22.525279 H          1 MOL1         0.0832
      10    C4      19.311072   20.424018   23.691847 C.3        1 MOL1        -0.1761
      11    H7      19.153834   21.113359   24.531829 H          1 MOL1         0.0832
      12    H8      18.376314   19.859248   23.581124 H          1 MOL1         0.0832
      13    C5      20.480233   19.473718   24.034804 C.3        1 MOL1         0.1218
      14    H9      21.419275   19.961958   23.737035 H          1 MOL1         0.0789
      15    C6      20.410241   18.093732   23.341958 C.3        1 MOL1        -0.1761
      16    H10     21.411458   17.646657   23.392337 H          1 MOL1         0.0832
      17    H11     19.754759   17.429344   23.920786 H          1 MOL1         0.0832
      18    C7      19.933261   18.080689   21.868063 C.3        1 MOL1        -0.1685
      19    H12     20.265241   17.137913   21.412225 H          1 MOL1         0.0832
      20    H13     18.835576   18.051461   21.837355 H          1 MOL1         0.0832
      21    O1      20.500171   19.260402   25.440974 O.3        1 MOL1        -0.5509
      22    H14     20.621238   20.139022   25.858093 H          1 MOL1         0.3779
@<TRIPOS>BOND
    1     1     2    1
    2     1     3    1
    3     1     4    1
    4     4     5    1
    5     4     6    1
    6     4     7    1
    7     7     8    1
    8     7     9    1
    9     7    10    1
   10    10    11    1
   11    10    12    1
   12    10    13    1
   13    13    14    1
   14    13    15    1
   15    15    16    1
   16    15    17    1
   17     1    18    1
   18    15    18    1
   19    18    19    1
   20    18    20    1
   21    13    21    1
   22    21    22    1
@<TRIPOS>SUBSTRUCTURE
       1 MOL1            1 RESIDUE      1      MOL     
@<SCITEGIC>MOL_PROPERTY
VConf Rank
SciTegic.value.IntegerValue
2

@<SCITEGIC>MOL_PROPERTY
Conf_Id
SciTegic.value.IntegerValue
144

@<SCITEGIC>MOL_PROPERTY
Delta U+W
SciTegic.value.DoubleValue
-3.291

@<SCITEGIC>MOL_PROPERTY
U+W
SciTegic.value.DoubleValue
3.132

@<SCITEGIC>MOL_PROPERTY
Grad RMS
SciTegic.value.DoubleValue
0.000000

@<SCITEGIC>MOL_PROPERTY
U
SciTegic.value.DoubleValue
5.411

@<SCITEGIC>MOL_PROPERTY
W
SciTegic.value.DoubleValue
-2.279

@<SCITEGIC>MOL_PROPERTY
W(PB)
SciTegic.value.DoubleValue
-4.300

@<SCITEGIC>MOL_PROPERTY
W(SA)
SciTegic.value.DoubleValue
2.021

@<SCITEGIC>MOL_PROPERTY
Valence
SciTegic.value.DoubleValue
11.909

@<SCITEGIC>MOL_PROPERTY
Coulomb
SciTegic.value.DoubleValue
-8.733

@<SCITEGIC>MOL_PROPERTY
VdW
SciTegic.value.DoubleValue
2.236

@<SCITEGIC>MOL_PROPERTY
VdW6
SciTegic.value.DoubleValue
-8.936

@<SCITEGIC>MOL_PROPERTY
VdW12
SciTegic.value.DoubleValue
11.172

@<SCITEGIC>MOL_PROPERTY
Bond
SciTegic.value.DoubleValue
0.223

@<SCITEGIC>MOL_PROPERTY
Angle
SciTegic.value.DoubleValue
2.457

@<SCITEGIC>MOL_PROPERTY
Pdih
SciTegic.value.DoubleValue
9.228

@<SCITEGIC>MOL_PROPERTY
Idih
SciTegic.value.DoubleValue
0.000

@<SCITEGIC>MOL_PROPERTY
Tether
SciTegic.value.DoubleValue
0.000

@<TRIPOS>MOLECULE
guest-5_confgen4.mol2 : confsearch ligand conformer 3
          22          22           1
SMALL
USER_CHARGES
 
@<TRIPOS>ATOM
       1    C1      19.622518   19.109022   21.008555 C.3        1 MOL1        -0.1685
       2    H1      19.714141   18.861540   19.942136 H          1 MOL1         0.0832
       3    H2      18.556455   19.007974   21.253465 H          1 MOL1         0.0832
       4    C2      20.096846   20.568167   21.203448 C.3        1 MOL1        -0.1685
       5    H3      21.192799   20.589775   21.275514 H          1 MOL1         0.0832
       6    H4      19.851356   21.145129   20.301312 H          1 MOL1         0.0832
       7    C3      19.481823   21.301322   22.420063 C.3        1 MOL1        -0.1685
       8    H5      18.500892   21.705724   22.135197 H          1 MOL1         0.0832
       9    H6      20.109544   22.173954   22.646997 H          1 MOL1         0.0832
      10    C4      19.301313   20.461517   23.708584 C.3        1 MOL1        -0.1761
      11    H7      19.182937   21.158063   24.549584 H          1 MOL1         0.0832
      12    H8      18.356714   19.905764   23.647232 H          1 MOL1         0.0832
      13    C5      20.453840   19.478047   24.012003 C.3        1 MOL1         0.1218
      14    H9      21.407354   19.915612   23.683650 H          1 MOL1         0.0789
      15    C6      20.253534   18.103326   23.334512 C.3        1 MOL1        -0.1761
      16    H10     20.952080   17.384758   23.783760 H          1 MOL1         0.0832
      17    H11     19.246557   17.727857   23.558354 H          1 MOL1         0.0832
      18    C7      20.471723   18.087809   21.802889 C.3        1 MOL1        -0.1685
      19    H12     21.536137   18.250748   21.585180 H          1 MOL1         0.0832
      20    H13     20.241975   17.078949   21.433828 H          1 MOL1         0.0832
      21    O1      20.504404   19.268789   25.416947 O.3        1 MOL1        -0.5509
      22    H14     19.641132   18.881779   25.670217 H          1 MOL1         0.3779
@<TRIPOS>BOND
    1     1     2    1
    2     1     3    1
    3     1     4    1
    4     4     5    1
    5     4     6    1
    6     4     7    1
    7     7     8    1
    8     7     9    1
    9     7    10    1
   10    10    11    1
   11    10    12    1
   12    10    13    1
   13    13    14    1
   14    13    15    1
   15    15    16    1
   16    15    17    1
   17     1    18    1
   18    15    18    1
   19    18    19    1
   20    18    20    1
   21    13    21    1
   22    21    22    1
@<TRIPOS>SUBSTRUCTURE
       1 MOL1            1 RESIDUE      1      MOL     
@<SCITEGIC>MOL_PROPERTY
VConf Rank
SciTegic.value.IntegerValue
3

@<SCITEGIC>MOL_PROPERTY
Conf_Id
SciTegic.value.IntegerValue
76

@<SCITEGIC>MOL_PROPERTY
Delta U+W
SciTegic.value.DoubleValue
-3.175

@<SCITEGIC>MOL_PROPERTY
U+W
SciTegic.value.DoubleValue
3.248

@<SCITEGIC>MOL_PROPERTY
Grad RMS
SciTegic.value.DoubleValue
0.000000

@<SCITEGIC>MOL_PROPERTY
U
SciTegic.value.DoubleValue
5.336

@<SCITEGIC>MOL_PROPERTY
W
SciTegic.value.DoubleValue
-2.088

@<SCITEGIC>MOL_PROPERTY
W(PB)
SciTegic.value.DoubleValue
-4.098

@<SCITEGIC>MOL_PROPERTY
W(SA)
SciTegic.value.DoubleValue
2.010

@<SCITEGIC>MOL_PROPERTY
Valence
SciTegic.value.DoubleValue
12.390

@<SCITEGIC>MOL_PROPERTY
Coulomb
SciTegic.value.DoubleValue
-9.270

@<SCITEGIC>MOL_PROPERTY
VdW
SciTegic.value.DoubleValue
2.216

@<SCITEGIC>MOL_PROPERTY
VdW6
SciTegic.value.DoubleValue
-8.967

@<SCITEGIC>MOL_PROPERTY
VdW12
SciTegic.value.DoubleValue
11.183

@<SCITEGIC>MOL_PROPERTY
Bond
SciTegic.value.DoubleValue
0.218

@<SCITEGIC>MOL_PROPERTY
Angle
SciTegic.value.DoubleValue
2.426

@<SCITEGIC>MOL_PROPERTY
Pdih
SciTegic.value.DoubleValue
9.745

@<SCITEGIC>MOL_PROPERTY
Idih
SciTegic.value.DoubleValue
0.000

@<SCITEGIC>MOL_PROPERTY
Tether
SciTegic.value.DoubleValue
0.000

@<TRIPOS>MOLECULE
guest-5_confgen4.mol2 : confsearch ligand conformer 4
          22          22           1
SMALL
USER_CHARGES
 
@<TRIPOS>ATOM
       1    C1      19.707885   18.987788   20.937789 C.3        1 MOL1        -0.1685
       2    H1      20.438247   18.757201   20.150272 H          1 MOL1         0.0832
       3    H2      18.725175   18.737010   20.515643 H          1 MOL1         0.0832
       4    C2      19.760566   20.509077   21.216319 C.3        1 MOL1        -0.1685
       5    H3      20.797277   20.861758   21.130732 H          1 MOL1         0.0832
       6    H4      19.209557   21.020082   20.415040 H          1 MOL1         0.0832
       7    C3      19.180035   20.944739   22.581868 C.3        1 MOL1        -0.1685
       8    H5      18.299083   20.343453   22.844953 H          1 MOL1         0.0832
       9    H6      18.825134   21.979792   22.486983 H          1 MOL1         0.0832
      10    C4      20.231591   20.908927   23.719861 C.3        1 MOL1        -0.1761
      11    H7      21.127510   21.456550   23.400562 H          1 MOL1         0.0832
      12    H8      19.836457   21.465969   24.579504 H          1 MOL1         0.0832
      13    C5      20.655129   19.507173   24.214632 C.3        1 MOL1         0.1218
      14    H9      21.520957   19.652875   24.876605 H          1 MOL1         0.0789
      15    C6      21.092145   18.520102   23.103239 C.3        1 MOL1        -0.1761
      16    H10     21.917543   18.953775   22.523995 H          1 MOL1         0.0832
      17    H11     21.510208   17.632168   23.594751 H          1 MOL1         0.0832
      18    C7      19.959906   18.058632   22.149143 C.3        1 MOL1        -0.1685
      19    H12     20.207963   17.060861   21.762694 H          1 MOL1         0.0832
      20    H13     19.024610   17.928966   22.709366 H          1 MOL1         0.0832
      21    O1      19.598744   18.941561   24.984150 O.3        1 MOL1        -0.5509
      22    H14     19.886498   18.039348   25.232125 H          1 MOL1         0.3779
@<TRIPOS>BOND
    1     1     2    1
    2     1     3    1
    3     1     4    1
    4     4     5    1
    5     4     6    1
    6     4     7    1
    7     7     8    1
    8     7     9    1
    9     7    10    1
   10    10    11    1
   11    10    12    1
   12    10    13    1
   13    13    14    1
   14    13    15    1
   15    15    16    1
   16    15    17    1
   17     1    18    1
   18    15    18    1
   19    18    19    1
   20    18    20    1
   21    13    21    1
   22    21    22    1
@<TRIPOS>SUBSTRUCTURE
       1 MOL1            1 RESIDUE      1      MOL     
@<SCITEGIC>MOL_PROPERTY
VConf Rank
SciTegic.value.IntegerValue
4

@<SCITEGIC>MOL_PROPERTY
Conf_Id
SciTegic.value.IntegerValue
95

@<SCITEGIC>MOL_PROPERTY
Delta U+W
SciTegic.value.DoubleValue
-2.289

@<SCITEGIC>MOL_PROPERTY
U+W
SciTegic.value.DoubleValue
4.134

@<SCITEGIC>MOL_PROPERTY
Grad RMS
SciTegic.value.DoubleValue
0.000000

@<SCITEGIC>MOL_PROPERTY
U
SciTegic.value.DoubleValue
6.373

@<SCITEGIC>MOL_PROPERTY
W
SciTegic.value.DoubleValue
-2.240

@<SCITEGIC>MOL_PROPERTY
W(PB)
SciTegic.value.DoubleValue
-4.254

@<SCITEGIC>MOL_PROPERTY
W(SA)
SciTegic.value.DoubleValue
2.015

@<SCITEGIC>MOL_PROPERTY
Valence
SciTegic.value.DoubleValue
12.093

@<SCITEGIC>MOL_PROPERTY
Coulomb
SciTegic.value.DoubleValue
-8.058

@<SCITEGIC>MOL_PROPERTY
VdW
SciTegic.value.DoubleValue
2.339

@<SCITEGIC>MOL_PROPERTY
VdW6
SciTegic.value.DoubleValue
-9.683

@<SCITEGIC>MOL_PROPERTY
VdW12
SciTegic.value.DoubleValue
12.022

@<SCITEGIC>MOL_PROPERTY
Bond
SciTegic.value.DoubleValue
0.268

@<SCITEGIC>MOL_PROPERTY
Angle
SciTegic.value.DoubleValue
3.005

@<SCITEGIC>MOL_PROPERTY
Pdih
SciTegic.value.DoubleValue
8.820

@<SCITEGIC>MOL_PROPERTY
Idih
SciTegic.value.DoubleValue
0.000

@<SCITEGIC>MOL_PROPERTY
Tether
SciTegic.value.DoubleValue
0.000

@<TRIPOS>MOLECULE
guest-5_confgen4.mol2 : confsearch ligand conformer 5
          22          22           1
SMALL
USER_CHARGES
 
@<TRIPOS>ATOM
       1    C1      19.709716   18.989163   20.937121 C.3        1 MOL1        -0.1685
       2    H1      20.442415   18.761219   20.151024 H          1 MOL1         0.0832
       3    H2      18.728736   18.735626   20.512638 H          1 MOL1         0.0832
       4    C2      19.756763   20.510428   21.216167 C.3        1 MOL1        -0.1685
       5    H3      20.791776   20.867048   21.126449 H          1 MOL1         0.0832
       6    H4      19.200914   21.019326   20.416884 H          1 MOL1         0.0832
       7    C3      19.179525   20.944042   22.583754 C.3        1 MOL1        -0.1685
       8    H5      18.299619   20.341734   22.847967 H          1 MOL1         0.0832
       9    H6      18.823719   21.978969   22.490187 H          1 MOL1         0.0832
      10    C4      20.236205   20.908543   23.716660 C.3        1 MOL1        -0.1761
      11    H7      21.134407   21.446369   23.386703 H          1 MOL1         0.0832
      12    H8      19.852902   21.479724   24.572121 H          1 MOL1         0.0832
      13    C5      20.654635   19.506415   24.215348 C.3        1 MOL1         0.1218
      14    H9      21.520065   19.650288   24.878244 H          1 MOL1         0.0789
      15    C6      21.091778   18.517107   23.106066 C.3        1 MOL1        -0.1761
      16    H10     21.924330   18.942671   22.531401 H          1 MOL1         0.0832
      17    H11     21.496303   17.627568   23.605975 H          1 MOL1         0.0832
      18    C7      19.961461   18.059113   22.147908 C.3        1 MOL1        -0.1685
      19    H12     20.209788   17.061638   21.761133 H          1 MOL1         0.0832
      20    H13     19.026879   17.927771   22.709090 H          1 MOL1         0.0832
      21    O1      19.595917   18.943190   24.983975 O.3        1 MOL1        -0.5509
      22    H14     19.348484   19.611864   25.654675 H          1 MOL1         0.3779
@<TRIPOS>BOND
    1     1     2    1
    2     1     3    1
    3     1     4    1
    4     4     5    1
    5     4     6    1
    6     4     7    1
    7     7     8    1
    8     7     9    1
    9     7    10    1
   10    10    11    1
   11    10    12    1
   12    10    13    1
   13    13    14    1
   14    13    15    1
   15    15    16    1
   16    15    17    1
   17     1    18    1
   18    15    18    1
   19    18    19    1
   20    18    20    1
   21    13    21    1
   22    21    22    1
@<TRIPOS>SUBSTRUCTURE
       1 MOL1            1 RESIDUE      1      MOL     
@<SCITEGIC>MOL_PROPERTY
VConf Rank
SciTegic.value.IntegerValue
5

@<SCITEGIC>MOL_PROPERTY
Conf_Id
SciTegic.value.IntegerValue
41

@<SCITEGIC>MOL_PROPERTY
Delta U+W
SciTegic.value.DoubleValue
-2.114

@<SCITEGIC>MOL_PROPERTY
U+W
SciTegic.value.DoubleValue
4.310

@<SCITEGIC>MOL_PROPERTY
Grad RMS
SciTegic.value.DoubleValue
0.000000

@<SCITEGIC>MOL_PROPERTY
U
SciTegic.value.DoubleValue
6.598

@<SCITEGIC>MOL_PROPERTY
W
SciTegic.value.DoubleValue
-2.289

@<SCITEGIC>MOL_PROPERTY
W(PB)
SciTegic.value.DoubleValue
-4.294

@<SCITEGIC>MOL_PROPERTY
W(SA)
SciTegic.value.DoubleValue
2.005

@<SCITEGIC>MOL_PROPERTY
Valence
SciTegic.value.DoubleValue
12.082

@<SCITEGIC>MOL_PROPERTY
Coulomb
SciTegic.value.DoubleValue
-7.801

@<SCITEGIC>MOL_PROPERTY
VdW
SciTegic.value.DoubleValue
2.317

@<SCITEGIC>MOL_PROPERTY
VdW6
SciTegic.value.DoubleValue
-9.658

@<SCITEGIC>MOL_PROPERTY
VdW12
SciTegic.value.DoubleValue
11.975

@<SCITEGIC>MOL_PROPERTY
Bond
SciTegic.value.DoubleValue
0.267

@<SCITEGIC>MOL_PROPERTY
Angle
SciTegic.value.DoubleValue
3.051

@<SCITEGIC>MOL_PROPERTY
Pdih
SciTegic.value.DoubleValue
8.764

@<SCITEGIC>MOL_PROPERTY
Idih
SciTegic.value.DoubleValue
0.000

@<SCITEGIC>MOL_PROPERTY
Tether
SciTegic.value.DoubleValue
0.000

@<TRIPOS>MOLECULE
guest-5_confgen4.mol2 : confsearch ligand conformer 6
          22          22           1
SMALL
USER_CHARGES
 
@<TRIPOS>ATOM
       1    C1      19.321913   18.908705   21.374516 C.3        1 MOL1        -0.1685
       2    H1      19.056133   18.515914   20.383746 H          1 MOL1         0.0832
       3    H2      18.534219   18.570024   22.061546 H          1 MOL1         0.0832
       4    C2      19.341367   20.450999   21.283202 C.3        1 MOL1        -0.1685
       5    H3      20.173785   20.770716   20.641764 H          1 MOL1         0.0832
       6    H4      18.425540   20.783955   20.776290 H          1 MOL1         0.0832
       7    C3      19.431600   21.175833   22.643972 C.3        1 MOL1        -0.1685
       8    H5      18.497432   21.024766   23.201107 H          1 MOL1         0.0832
       9    H6      19.486460   22.255288   22.449310 H          1 MOL1         0.0832
      10    C4      20.646059   20.776216   23.525211 C.3        1 MOL1        -0.1761
      11    H7      21.574152   20.852773   22.944660 H          1 MOL1         0.0832
      12    H8      20.735022   21.521739   24.325751 H          1 MOL1         0.0832
      13    C5      20.563484   19.384794   24.204297 C.3        1 MOL1         0.1218
      14    H9      21.305510   19.385514   25.015885 H          1 MOL1         0.0789
      15    C6      20.910582   18.170648   23.304013 C.3        1 MOL1        -0.1761
      16    H10     21.968056   17.922536   23.462919 H          1 MOL1         0.0832
      17    H11     20.352767   17.293026   23.656283 H          1 MOL1         0.0832
      18    C7      20.690737   18.317417   21.777899 C.3        1 MOL1        -0.1685
      19    H12     21.498997   18.919106   21.340750 H          1 MOL1         0.0832
      20    H13     20.789215   17.320504   21.327184 H          1 MOL1         0.0832
      21    O1      19.280259   19.193387   24.793889 O.3        1 MOL1        -0.5509
      22    H14     19.300599   18.321771   25.238613 H          1 MOL1         0.3779
@<TRIPOS>BOND
    1     1     2    1
    2     1     3    1
    3     1     4    1
    4     4     5    1
    5     4     6    1
    6     4     7    1
    7     7     8    1
    8     7     9    1
    9     7    10    1
   10    10    11    1
   11    10    12    1
   12    10    13    1
   13    13    14    1
   14    13    15    1
   15    15    16    1
   16    15    17    1
   17     1    18    1
   18    15    18    1
   19    18    19    1
   20    18    20    1
   21    13    21    1
   22    21    22    1
@<TRIPOS>SUBSTRUCTURE
       1 MOL1            1 RESIDUE      1      MOL     
@<SCITEGIC>MOL_PROPERTY
VConf Rank
SciTegic.value.IntegerValue
6

@<SCITEGIC>MOL_PROPERTY
Conf_Id
SciTegic.value.IntegerValue
104

@<SCITEGIC>MOL_PROPERTY
Delta U+W
SciTegic.value.DoubleValue
-1.172

@<SCITEGIC>MOL_PROPERTY
U+W
SciTegic.value.DoubleValue
5.252

@<SCITEGIC>MOL_PROPERTY
Grad RMS
SciTegic.value.DoubleValue
0.000000

@<SCITEGIC>MOL_PROPERTY
U
SciTegic.value.DoubleValue
7.482

@<SCITEGIC>MOL_PROPERTY
W
SciTegic.value.DoubleValue
-2.230

@<SCITEGIC>MOL_PROPERTY
W(PB)
SciTegic.value.DoubleValue
-4.220

@<SCITEGIC>MOL_PROPERTY
W(SA)
SciTegic.value.DoubleValue
1.990

@<SCITEGIC>MOL_PROPERTY
Valence
SciTegic.value.DoubleValue
12.309

@<SCITEGIC>MOL_PROPERTY
Coulomb
SciTegic.value.DoubleValue
-7.084

@<SCITEGIC>MOL_PROPERTY
VdW
SciTegic.value.DoubleValue
2.258

@<SCITEGIC>MOL_PROPERTY
VdW6
SciTegic.value.DoubleValue
-9.770

@<SCITEGIC>MOL_PROPERTY
VdW12
SciTegic.value.DoubleValue
12.028

@<SCITEGIC>MOL_PROPERTY
Bond
SciTegic.value.DoubleValue
0.284

@<SCITEGIC>MOL_PROPERTY
Angle
SciTegic.value.DoubleValue
3.491

@<SCITEGIC>MOL_PROPERTY
Pdih
SciTegic.value.DoubleValue
8.535

@<SCITEGIC>MOL_PROPERTY
Idih
SciTegic.value.DoubleValue
0.000

@<SCITEGIC>MOL_PROPERTY
Tether
SciTegic.value.DoubleValue
0.000

@<TRIPOS>MOLECULE
guest-5_confgen4.mol2 : confsearch ligand conformer 7
          22          22           1
SMALL
USER_CHARGES
 
@<TRIPOS>ATOM
       1    C1      20.023134   19.223511   21.065303 C.3        1 MOL1        -0.1685
       2    H1      20.975821   19.730589   20.860995 H          1 MOL1         0.0832
       3    H2      19.669209   18.843852   20.097038 H          1 MOL1         0.0832
       4    C2      18.968837   20.221878   21.595590 C.3        1 MOL1        -0.1685
       5    H3      18.552988   20.777571   20.743814 H          1 MOL1         0.0832
       6    H4      18.119479   19.665893   22.013692 H          1 MOL1         0.0832
       7    C3      19.483503   21.256682   22.628050 C.3        1 MOL1        -0.1685
       8    H5      18.635393   21.583089   23.245694 H          1 MOL1         0.0832
       9    H6      19.811484   22.154362   22.086268 H          1 MOL1         0.0832
      10    C4      20.649510   20.817716   23.554839 C.3        1 MOL1        -0.1761
      11    H7      21.593896   20.883831   22.999214 H          1 MOL1         0.0832
      12    H8      20.737970   21.557076   24.361389 H          1 MOL1         0.0832
      13    C5      20.548822   19.415315   24.197579 C.3        1 MOL1         0.1218
      14    H9      21.194814   19.416252   25.087284 H          1 MOL1         0.0789
      15    C6      21.066215   18.291878   23.271046 C.3        1 MOL1        -0.1761
      16    H10     22.097051   18.526690   22.975578 H          1 MOL1         0.0832
      17    H11     21.130715   17.366589   23.858350 H          1 MOL1         0.0832
      18    C7      20.231852   18.006564   21.997772 C.3        1 MOL1        -0.1685
      19    H12     20.745505   17.219983   21.428419 H          1 MOL1         0.0832
      20    H13     19.258966   17.580440   22.277751 H          1 MOL1         0.0832
      21    O1      19.214127   19.144457   24.596821 O.3        1 MOL1        -0.5509
      22    H14     18.694419   19.243304   23.774374 H          1 MOL1         0.3779
@<TRIPOS>BOND
    1     1     2    1
    2     1     3    1
    3     1     4    1
    4     4     5    1
    5     4     6    1
    6     4     7    1
    7     7     8    1
    8     7     9    1
    9     7    10    1
   10    10    11    1
   11    10    12    1
   12    10    13    1
   13    13    14    1
   14    13    15    1
   15    15    16    1
   16    15    17    1
   17     1    18    1
   18    15    18    1
   19    18    19    1
   20    18    20    1
   21    13    21    1
   22    21    22    1
@<TRIPOS>SUBSTRUCTURE
       1 MOL1            1 RESIDUE      1      MOL     
@<SCITEGIC>MOL_PROPERTY
VConf Rank
SciTegic.value.IntegerValue
7

@<SCITEGIC>MOL_PROPERTY
Conf_Id
SciTegic.value.IntegerValue
99

@<SCITEGIC>MOL_PROPERTY
Delta U+W
SciTegic.value.DoubleValue
-3.852

@<SCITEGIC>MOL_PROPERTY
U+W
SciTegic.value.DoubleValue
2.572

@<SCITEGIC>MOL_PROPERTY
Grad RMS
SciTegic.value.DoubleValue
0.000000

@<SCITEGIC>MOL_PROPERTY
U
SciTegic.value.DoubleValue
3.922

@<SCITEGIC>MOL_PROPERTY
W
SciTegic.value.DoubleValue
-1.350

@<SCITEGIC>MOL_PROPERTY
W(PB)
SciTegic.value.DoubleValue
-3.345

@<SCITEGIC>MOL_PROPERTY
W(SA)
SciTegic.value.DoubleValue
1.995

@<SCITEGIC>MOL_PROPERTY
Valence
SciTegic.value.DoubleValue
12.571

@<SCITEGIC>MOL_PROPERTY
Coulomb
SciTegic.value.DoubleValue
-10.581

@<SCITEGIC>MOL_PROPERTY
VdW
SciTegic.value.DoubleValue
1.932

@<SCITEGIC>MOL_PROPERTY
VdW6
SciTegic.value.DoubleValue
-10.483

@<SCITEGIC>MOL_PROPERTY
VdW12
SciTegic.value.DoubleValue
12.415

@<SCITEGIC>MOL_PROPERTY
Bond
SciTegic.value.DoubleValue
0.268

@<SCITEGIC>MOL_PROPERTY
Angle
SciTegic.value.DoubleValue
3.728

@<SCITEGIC>MOL_PROPERTY
Pdih
SciTegic.value.DoubleValue
8.575

@<SCITEGIC>MOL_PROPERTY
Idih
SciTegic.value.DoubleValue
0.000

@<SCITEGIC>MOL_PROPERTY
Tether
SciTegic.value.DoubleValue
0.000

@<TRIPOS>MOLECULE
guest-5_confgen4.mol2 : confsearch ligand conformer 8
          22          22           1
SMALL
USER_CHARGES
 
@<TRIPOS>ATOM
       1    C1      19.271507   18.802951   21.447811 C.3        1 MOL1        -0.1685
       2    H1      19.093221   18.595970   20.383544 H          1 MOL1         0.0832
       3    H2      18.574947   18.145188   21.984661 H          1 MOL1         0.0832
       4    C2      18.911469   20.294597   21.710904 C.3        1 MOL1        -0.1685
       5    H3      18.577192   20.733199   20.760548 H          1 MOL1         0.0832
       6    H4      18.039987   20.361939   22.375763 H          1 MOL1         0.0832
       7    C3      20.055838   21.181972   22.263837 C.3        1 MOL1        -0.1685
       8    H5      19.733223   22.231083   22.219006 H          1 MOL1         0.0832
       9    H6      20.921631   21.130930   21.591998 H          1 MOL1         0.0832
      10    C4      20.504795   20.884717   23.721543 C.3        1 MOL1        -0.1761
      11    H7      21.524301   21.269957   23.851693 H          1 MOL1         0.0832
      12    H8      19.881387   21.477560   24.404108 H          1 MOL1         0.0832
      13    C5      20.469087   19.416786   24.213543 C.3        1 MOL1         0.1218
      14    H9      21.025492   19.383960   25.161230 H          1 MOL1         0.0789
      15    C6      21.112763   18.364517   23.277298 C.3        1 MOL1        -0.1761
      16    H10     22.204130   18.451719   23.355112 H          1 MOL1         0.0832
      17    H11     20.871657   17.371782   23.680216 H          1 MOL1         0.0832
      18    C7      20.729861   18.389169   21.771450 C.3        1 MOL1        -0.1685
      19    H12     21.428037   19.033036   21.222311 H          1 MOL1         0.0832
      20    H13     20.903165   17.383745   21.364248 H          1 MOL1         0.0832
      21    O1      19.130680   19.043292   24.500614 O.3        1 MOL1        -0.5509
      22    H14     18.681502   19.087833   23.632750 H          1 MOL1         0.3779
@<TRIPOS>BOND
    1     1     2    1
    2     1     3    1
    3     1     4    1
    4     4     5    1
    5     4     6    1
    6     4     7    1
    7     7     8    1
    8     7     9    1
    9     7    10    1
   10    10    11    1
   11    10    12    1
   12    10    13    1
   13    13    14    1
   14    13    15    1
   15    15    16    1
   16    15    17    1
   17     1    18    1
   18    15    18    1
   19    18    19    1
   20    18    20    1
   21    13    21    1
   22    21    22    1
@<TRIPOS>SUBSTRUCTURE
       1 MOL1            1 RESIDUE      1      MOL     
@<SCITEGIC>MOL_PROPERTY
VConf Rank
SciTegic.value.IntegerValue
8

@<SCITEGIC>MOL_PROPERTY
Conf_Id
SciTegic.value.IntegerValue
98

@<SCITEGIC>MOL_PROPERTY
Delta U+W
SciTegic.value.DoubleValue
0.930

@<SCITEGIC>MOL_PROPERTY
U+W
SciTegic.value.DoubleValue
7.353

@<SCITEGIC>MOL_PROPERTY
Grad RMS
SciTegic.value.DoubleValue
0.000000

@<SCITEGIC>MOL_PROPERTY
U
SciTegic.value.DoubleValue
8.455

@<SCITEGIC>MOL_PROPERTY
W
SciTegic.value.DoubleValue
-1.102

@<SCITEGIC>MOL_PROPERTY
W(PB)
SciTegic.value.DoubleValue
-3.101

@<SCITEGIC>MOL_PROPERTY
W(SA)
SciTegic.value.DoubleValue
2.000

@<SCITEGIC>MOL_PROPERTY
Valence
SciTegic.value.DoubleValue
15.601

@<SCITEGIC>MOL_PROPERTY
Coulomb
SciTegic.value.DoubleValue
-10.573

@<SCITEGIC>MOL_PROPERTY
VdW
SciTegic.value.DoubleValue
3.427

@<SCITEGIC>MOL_PROPERTY
VdW6
SciTegic.value.DoubleValue
-11.360

@<SCITEGIC>MOL_PROPERTY
VdW12
SciTegic.value.DoubleValue
14.787

@<SCITEGIC>MOL_PROPERTY
Bond
SciTegic.value.DoubleValue
0.471

@<SCITEGIC>MOL_PROPERTY
Angle
SciTegic.value.DoubleValue
5.445

@<SCITEGIC>MOL_PROPERTY
Pdih
SciTegic.value.DoubleValue
9.685

@<SCITEGIC>MOL_PROPERTY
Idih
SciTegic.value.DoubleValue
0.000

@<SCITEGIC>MOL_PROPERTY
Tether
SciTegic.value.DoubleValue
0.000

@<TRIPOS>MOLECULE
guest-5_confgen4.mol2 : confsearch ligand conformer 9
          22          22           1
SMALL
USER_CHARGES
 
@<TRIPOS>ATOM
       1    C1      18.537112   19.877419   21.848805 C.3        1 MOL1        -0.1685
       2    H1      18.066742   19.919236   22.839655 H          1 MOL1         0.0832
       3    H2      17.736397   20.134336   21.142008 H          1 MOL1         0.0832
       4    C2      19.010055   18.431195   21.553982 C.3        1 MOL1        -0.1685
       5    H3      18.127460   17.778724   21.600699 H          1 MOL1         0.0832
       6    H4      19.373086   18.366796   20.519243 H          1 MOL1         0.0832
       7    C3      20.089596   17.853366   22.510721 C.3        1 MOL1        -0.1685
       8    H5      21.072214   17.867106   22.021549 H          1 MOL1         0.0832
       9    H6      19.869418   16.789473   22.672853 H          1 MOL1         0.0832
      10    C4      20.188853   18.556287   23.890489 C.3        1 MOL1        -0.1761
      11    H7      19.191847   18.596305   24.346562 H          1 MOL1         0.0832
      12    H8      20.779851   17.917955   24.561042 H          1 MOL1         0.0832
      13    C5      20.805247   19.985927   23.882661 C.3        1 MOL1         0.1218
      14    H9      20.167050   20.633429   24.501138 H          1 MOL1         0.0789
      15    C6      20.960966   20.648440   22.490869 C.3        1 MOL1        -0.1761
      16    H10     21.513197   21.590251   22.605277 H          1 MOL1         0.0832
      17    H11     21.595347   20.021686   21.852645 H          1 MOL1         0.0832
      18    C7      19.635682   20.962096   21.752594 C.3        1 MOL1        -0.1685
      19    H12     19.223565   21.901483   22.145691 H          1 MOL1         0.0832
      20    H13     19.862875   21.152077   20.694784 H          1 MOL1         0.0832
      21    O1      22.099190   19.921993   24.471557 O.3        1 MOL1        -0.5509
      22    H14     22.439504   20.840222   24.506512 H          1 MOL1         0.3779
@<TRIPOS>BOND
    1     1     2    1
    2     1     3    1
    3     1     4    1
    4     4     5    1
    5     4     6    1
    6     4     7    1
    7     7     8    1
    8     7     9    1
    9     7    10    1
   10    10    11    1
   11    10    12    1
   12    10    13    1
   13    13    14    1
   14    13    15    1
   15    15    16    1
   16    15    17    1
   17     1    18    1
   18    15    18    1
   19    18    19    1
   20    18    20    1
   21    13    21    1
   22    21    22    1
@<TRIPOS>SUBSTRUCTURE
       1 MOL1            1 RESIDUE      1      MOL     
@<SCITEGIC>MOL_PROPERTY
VConf Rank
SciTegic.value.IntegerValue
9

@<SCITEGIC>MOL_PROPERTY
Conf_Id
SciTegic.value.IntegerValue
141

@<SCITEGIC>MOL_PROPERTY
Delta U+W
SciTegic.value.DoubleValue
0.000

@<SCITEGIC>MOL_PROPERTY
U+W
SciTegic.value.DoubleValue
6.423

@<SCITEGIC>MOL_PROPERTY
Grad RMS
SciTegic.value.DoubleValue
0.000000

@<SCITEGIC>MOL_PROPERTY
U
SciTegic.value.DoubleValue
8.781

@<SCITEGIC>MOL_PROPERTY
W
SciTegic.value.DoubleValue
-2.358

@<SCITEGIC>MOL_PROPERTY
W(PB)
SciTegic.value.DoubleValue
-4.373

@<SCITEGIC>MOL_PROPERTY
W(SA)
SciTegic.value.DoubleValue
2.015

@<SCITEGIC>MOL_PROPERTY
Valence
SciTegic.value.DoubleValue
13.328

@<SCITEGIC>MOL_PROPERTY
Coulomb
SciTegic.value.DoubleValue
-8.387

@<SCITEGIC>MOL_PROPERTY
VdW
SciTegic.value.DoubleValue
3.840

@<SCITEGIC>MOL_PROPERTY
VdW6
SciTegic.value.DoubleValue
-9.744

@<SCITEGIC>MOL_PROPERTY
VdW12
SciTegic.value.DoubleValue
13.584

@<SCITEGIC>MOL_PROPERTY
Bond
SciTegic.value.DoubleValue
0.436

@<SCITEGIC>MOL_PROPERTY
Angle
SciTegic.value.DoubleValue
3.478

@<SCITEGIC>MOL_PROPERTY
Pdih
SciTegic.value.DoubleValue
9.415

@<SCITEGIC>MOL_PROPERTY
Idih
SciTegic.value.DoubleValue
0.000

@<SCITEGIC>MOL_PROPERTY
Tether
SciTegic.value.DoubleValue
0.000

@<TRIPOS>MOLECULE
guest-5_confgen4.mol2 : confsearch ligand conformer 10
          22          22           1
SMALL
USER_CHARGES
 
@<TRIPOS>ATOM
       1    C1      18.542188   18.794838   23.218184 C.3        1 MOL1        -0.1685
       2    H1      19.166729   18.217495   23.913333 H          1 MOL1         0.0832
       3    H2      17.505642   18.489130   23.415716 H          1 MOL1         0.0832
       4    C2      18.867249   18.431046   21.749291 C.3        1 MOL1        -0.1685
       5    H3      18.532251   17.401817   21.561359 H          1 MOL1         0.0832
       6    H4      18.273549   19.065496   21.077077 H          1 MOL1         0.0832
       7    C3      20.360250   18.530726   21.360267 C.3        1 MOL1        -0.1685
       8    H5      20.449402   18.315966   20.286602 H          1 MOL1         0.0832
       9    H6      20.924282   17.738905   21.871978 H          1 MOL1         0.0832
      10    C4      21.020630   19.901541   21.646527 C.3        1 MOL1        -0.1761
      11    H7      21.986293   19.920279   21.124388 H          1 MOL1         0.0832
      12    H8      20.424421   20.716177   21.215365 H          1 MOL1         0.0832
      13    C5      21.260283   20.145158   23.153459 C.3        1 MOL1         0.1218
      14    H9      21.472855   19.176942   23.629079 H          1 MOL1         0.0789
      15    C6      20.072129   20.799222   23.894937 C.3        1 MOL1        -0.1761
      16    H10     20.218076   20.628989   24.969446 H          1 MOL1         0.0832
      17    H11     20.111231   21.887784   23.754886 H          1 MOL1         0.0832
      18    C7      18.655372   20.310998   23.501897 C.3        1 MOL1        -0.1685
      19    H12     17.967529   20.573716   24.317173 H          1 MOL1         0.0832
      20    H13     18.302481   20.873581   22.626867 H          1 MOL1         0.0832
      21    O1      22.394298   20.990021   23.306544 O.3        1 MOL1        -0.5509
      22    H14     23.151919   20.522681   22.896395 H          1 MOL1         0.3779
@<TRIPOS>BOND
    1     1     2    1
    2     1     3    1
    3     1     4    1
    4     4     5    1
    5     4     6    1
    6     4     7    1
    7     7     8    1
    8     7     9    1
    9     7    10    1
   10    10    11    1
   11    10    12    1
   12    10    13    1
   13    13    14    1
   14    13    15    1
   15    15    16    1
   16    15    17    1
   17     1    18    1
   18    15    18    1
   19    18    19    1
   20    18    20    1
   21    13    21    1
   22    21    22    1
@<TRIPOS>SUBSTRUCTURE
       1 MOL1            1 RESIDUE      1      MOL     
@<SCITEGIC>MOL_PROPERTY
VConf Rank
SciTegic.value.IntegerValue
10

@<SCITEGIC>MOL_PROPERTY
Conf_Id
SciTegic.value.IntegerValue
144

@<SCITEGIC>MOL_PROPERTY
Delta U+W
SciTegic.value.DoubleValue
-3.291

@<SCITEGIC>MOL_PROPERTY
U+W
SciTegic.value.DoubleValue
3.132

@<SCITEGIC>MOL_PROPERTY
Grad RMS
SciTegic.value.DoubleValue
0.000000

@<SCITEGIC>MOL_PROPERTY
U
SciTegic.value.DoubleValue
5.411

@<SCITEGIC>MOL_PROPERTY
W
SciTegic.value.DoubleValue
-2.279

@<SCITEGIC>MOL_PROPERTY
W(PB)
SciTegic.value.DoubleValue
-4.300

@<SCITEGIC>MOL_PROPERTY
W(SA)
SciTegic.value.DoubleValue
2.021

@<SCITEGIC>MOL_PROPERTY
Valence
SciTegic.value.DoubleValue
11.909

@<SCITEGIC>MOL_PROPERTY
Coulomb
SciTegic.value.DoubleValue
-8.733

@<SCITEGIC>MOL_PROPERTY
VdW
SciTegic.value.DoubleValue
2.236

@<SCITEGIC>MOL_PROPERTY
VdW6
SciTegic.value.DoubleValue
-8.936

@<SCITEGIC>MOL_PROPERTY
VdW12
SciTegic.value.DoubleValue
11.172

@<SCITEGIC>MOL_PROPERTY
Bond
SciTegic.value.DoubleValue
0.223

@<SCITEGIC>MOL_PROPERTY
Angle
SciTegic.value.DoubleValue
2.457

@<SCITEGIC>MOL_PROPERTY
Pdih
SciTegic.value.DoubleValue
9.228

@<SCITEGIC>MOL_PROPERTY
Idih
SciTegic.value.DoubleValue
0.000

@<SCITEGIC>MOL_PROPERTY
Tether
SciTegic.value.DoubleValue
0.000

@<TRIPOS>MOLECULE
guest-5_confgen4.mol2 : confsearch ligand conformer 11
          22          22           1
SMALL
USER_CHARGES
 
@<TRIPOS>ATOM
       1    C1      21.627761   19.566205   23.045486 C.3        1 MOL1        -0.1685
       2    H1      22.595782   19.671469   23.554155 H          1 MOL1         0.0832
       3    H2      21.852821   19.187254   22.039292 H          1 MOL1         0.0832
       4    C2      20.970662   20.964461   22.973550 C.3        1 MOL1        -0.1685
       5    H3      20.465985   21.180616   23.925050 H          1 MOL1         0.0832
       6    H4      21.759554   21.723528   22.881556 H          1 MOL1         0.0832
       7    C3      19.978462   21.163955   21.802369 C.3        1 MOL1        -0.1685
       8    H5      20.542040   21.431834   20.898193 H          1 MOL1         0.0832
       9    H6      19.349869   22.035517   22.030991 H          1 MOL1         0.0832
      10    C4      19.066069   19.959692   21.462617 C.3        1 MOL1        -0.1761
      11    H7      18.219977   20.335616   20.871618 H          1 MOL1         0.0832
      12    H8      19.608599   19.271692   20.801398 H          1 MOL1         0.0832
      13    C5      18.534330   19.179706   22.685920 C.3        1 MOL1         0.1218
      14    H9      18.360908   19.875390   23.519237 H          1 MOL1         0.0789
      15    C6      19.497442   18.058614   23.138189 C.3        1 MOL1        -0.1761
      16    H10     18.962317   17.392351   23.828020 H          1 MOL1         0.0832
      17    H11     19.773163   17.441472   22.273204 H          1 MOL1         0.0832
      18    C7      20.784812   18.544340   23.845624 C.3        1 MOL1        -0.1685
      19    H12     20.523585   18.972630   24.822994 H          1 MOL1         0.0832
      20    H13     21.409821   17.666966   24.060954 H          1 MOL1         0.0832
      21    O1      17.298777   18.575250   22.327796 O.3        1 MOL1        -0.5509
      22    H14     17.493336   17.967071   21.585216 H          1 MOL1         0.3779
@<TRIPOS>BOND
    1     1     2    1
    2     1     3    1
    3     1     4    1
    4     4     5    1
    5     4     6    1
    6     4     7    1
    7     7     8    1
    8     7     9    1
    9     7    10    1
   10    10    11    1
   11    10    12    1
   12    10    13    1
   13    13    14    1
   14    13    15    1
   15    15    16    1
   16    15    17    1
   17     1    18    1
   18    15    18    1
   19    18    19    1
   20    18    20    1
   21    13    21    1
   22    21    22    1
@<TRIPOS>SUBSTRUCTURE
       1 MOL1            1 RESIDUE      1      MOL     
@<SCITEGIC>MOL_PROPERTY
VConf Rank
SciTegic.value.IntegerValue
11

@<SCITEGIC>MOL_PROPERTY
Conf_Id
SciTegic.value.IntegerValue
76

@<SCITEGIC>MOL_PROPERTY
Delta U+W
SciTegic.value.DoubleValue
-3.175

@<SCITEGIC>MOL_PROPERTY
U+W
SciTegic.value.DoubleValue
3.248

@<SCITEGIC>MOL_PROPERTY
Grad RMS
SciTegic.value.DoubleValue
0.000000

@<SCITEGIC>MOL_PROPERTY
U
SciTegic.value.DoubleValue
5.336

@<SCITEGIC>MOL_PROPERTY
W
SciTegic.value.DoubleValue
-2.088

@<SCITEGIC>MOL_PROPERTY
W(PB)
SciTegic.value.DoubleValue
-4.098

@<SCITEGIC>MOL_PROPERTY
W(SA)
SciTegic.value.DoubleValue
2.010

@<SCITEGIC>MOL_PROPERTY
Valence
SciTegic.value.DoubleValue
12.390

@<SCITEGIC>MOL_PROPERTY
Coulomb
SciTegic.value.DoubleValue
-9.270

@<SCITEGIC>MOL_PROPERTY
VdW
SciTegic.value.DoubleValue
2.216

@<SCITEGIC>MOL_PROPERTY
VdW6
SciTegic.value.DoubleValue
-8.967

@<SCITEGIC>MOL_PROPERTY
VdW12
SciTegic.value.DoubleValue
11.183

@<SCITEGIC>MOL_PROPERTY
Bond
SciTegic.value.DoubleValue
0.218

@<SCITEGIC>MOL_PROPERTY
Angle
SciTegic.value.DoubleValue
2.426

@<SCITEGIC>MOL_PROPERTY
Pdih
SciTegic.value.DoubleValue
9.745

@<SCITEGIC>MOL_PROPERTY
Idih
SciTegic.value.DoubleValue
0.000

@<SCITEGIC>MOL_PROPERTY
Tether
SciTegic.value.DoubleValue
0.000

@<TRIPOS>MOLECULE
guest-5_confgen4.mol2 : confsearch ligand conformer 12
          22          22           1
SMALL
USER_CHARGES
 
@<TRIPOS>ATOM
       1    C1      20.908787   21.016019   21.860294 C.3        1 MOL1        -0.1685
       2    H1      20.593422   22.067940   21.888371 H          1 MOL1         0.0832
       3    H2      21.863191   21.005368   21.316405 H          1 MOL1         0.0832
       4    C2      19.860302   20.217923   21.048877 C.3        1 MOL1        -0.1685
       5    H3      18.857764   20.618530   21.251138 H          1 MOL1         0.0832
       6    H4      20.041868   20.406121   19.981919 H          1 MOL1         0.0832
       7    C3      19.864145   18.691560   21.297361 C.3        1 MOL1        -0.1685
       8    H5      20.887842   18.317948   21.436267 H          1 MOL1         0.0832
       9    H6      19.479619   18.198108   20.394623 H          1 MOL1         0.0832
      10    C4      18.959440   18.274645   22.484699 C.3        1 MOL1        -0.1761
      11    H7      17.965294   18.721112   22.354886 H          1 MOL1         0.0832
      12    H8      18.802823   17.188828   22.441262 H          1 MOL1         0.0832
      13    C5      19.481485   18.624392   23.896875 C.3        1 MOL1         0.1218
      14    H9      18.655644   18.431756   24.596857 H          1 MOL1         0.0789
      15    C6      19.911282   20.099820   24.094045 C.3        1 MOL1        -0.1761
      16    H10     19.073556   20.766782   23.852681 H          1 MOL1         0.0832
      17    H11     20.107998   20.247180   25.163799 H          1 MOL1         0.0832
      18    C7      21.175300   20.529151   23.304646 C.3        1 MOL1        -0.1685
      19    H12     21.672088   21.343828   23.848636 H          1 MOL1         0.0832
      20    H13     21.903361   19.707616   23.283444 H          1 MOL1         0.0832
      21    O1      20.557205   17.752445   24.229378 O.3        1 MOL1        -0.5509
      22    H14     20.889804   18.040737   25.103763 H          1 MOL1         0.3779
@<TRIPOS>BOND
    1     1     2    1
    2     1     3    1
    3     1     4    1
    4     4     5    1
    5     4     6    1
    6     4     7    1
    7     7     8    1
    8     7     9    1
    9     7    10    1
   10    10    11    1
   11    10    12    1
   12    10    13    1
   13    13    14    1
   14    13    15    1
   15    15    16    1
   16    15    17    1
   17     1    18    1
   18    15    18    1
   19    18    19    1
   20    18    20    1
   21    13    21    1
   22    21    22    1
@<TRIPOS>SUBSTRUCTURE
       1 MOL1            1 RESIDUE      1      MOL     
@<SCITEGIC>MOL_PROPERTY
VConf Rank
SciTegic.value.IntegerValue
12

@<SCITEGIC>MOL_PROPERTY
Conf_Id
SciTegic.value.IntegerValue
95

@<SCITEGIC>MOL_PROPERTY
Delta U+W
SciTegic.value.DoubleValue
-2.289

@<SCITEGIC>MOL_PROPERTY
U+W
SciTegic.value.DoubleValue
4.134

@<SCITEGIC>MOL_PROPERTY
Grad RMS
SciTegic.value.DoubleValue
0.000000

@<SCITEGIC>MOL_PROPERTY
U
SciTegic.value.DoubleValue
6.373

@<SCITEGIC>MOL_PROPERTY
W
SciTegic.value.DoubleValue
-2.240

@<SCITEGIC>MOL_PROPERTY
W(PB)
SciTegic.value.DoubleValue
-4.254

@<SCITEGIC>MOL_PROPERTY
W(SA)
SciTegic.value.DoubleValue
2.015

@<SCITEGIC>MOL_PROPERTY
Valence
SciTegic.value.DoubleValue
12.093

@<SCITEGIC>MOL_PROPERTY
Coulomb
SciTegic.value.DoubleValue
-8.058

@<SCITEGIC>MOL_PROPERTY
VdW
SciTegic.value.DoubleValue
2.339

@<SCITEGIC>MOL_PROPERTY
VdW6
SciTegic.value.DoubleValue
-9.683

@<SCITEGIC>MOL_PROPERTY
VdW12
SciTegic.value.DoubleValue
12.022

@<SCITEGIC>MOL_PROPERTY
Bond
SciTegic.value.DoubleValue
0.268

@<SCITEGIC>MOL_PROPERTY
Angle
SciTegic.value.DoubleValue
3.005

@<SCITEGIC>MOL_PROPERTY
Pdih
SciTegic.value.DoubleValue
8.820

@<SCITEGIC>MOL_PROPERTY
Idih
SciTegic.value.DoubleValue
0.000

@<SCITEGIC>MOL_PROPERTY
Tether
SciTegic.value.DoubleValue
0.000

@<TRIPOS>MOLECULE
guest-5_confgen4.mol2 : confsearch ligand conformer 13
          22          22           1
SMALL
USER_CHARGES
 
@<TRIPOS>ATOM
       1    C1      20.501547   20.896719   24.062115 C.3        1 MOL1        -0.1685
       2    H1      21.345955   20.861028   24.763867 H          1 MOL1         0.0832
       3    H2      19.982070   21.842325   24.268903 H          1 MOL1         0.0832
       4    C2      19.550471   19.720773   24.389121 C.3        1 MOL1        -0.1685
       5    H3      20.140884   18.848145   24.699624 H          1 MOL1         0.0832
       6    H4      18.955340   20.000382   25.269142 H          1 MOL1         0.0832
       7    C3      18.593516   19.314046   23.244426 C.3        1 MOL1        -0.1685
       8    H5      18.241789   20.197003   22.693523 H          1 MOL1         0.0832
       9    H6      17.700310   18.858847   23.693206 H          1 MOL1         0.0832
      10    C4      19.220935   18.273872   22.282296 C.3        1 MOL1        -0.1761
      11    H7      19.638284   17.446572   22.870761 H          1 MOL1         0.0832
      12    H8      18.420601   17.826706   21.678566 H          1 MOL1         0.0832
      13    C5      20.315022   18.801963   21.326352 C.3        1 MOL1         0.1218
      14    H9      20.770300   17.922705   20.848096 H          1 MOL1         0.0789
      15    C6      21.459997   19.591365   22.009147 C.3        1 MOL1        -0.1761
      16    H10     21.940366   18.968123   22.774199 H          1 MOL1         0.0832
      17    H11     22.227577   19.774334   21.246145 H          1 MOL1         0.0832
      18    C7      21.048373   20.958069   22.615881 C.3        1 MOL1        -0.1685
      19    H12     21.922937   21.622411   22.613861 H          1 MOL1         0.0832
      20    H13     20.311027   21.447906   21.966265 H          1 MOL1         0.0832
      21    O1      19.710896   19.596586   20.310233 O.3        1 MOL1        -0.5509
      22    H14     18.988139   19.059936   19.925766 H          1 MOL1         0.3779
@<TRIPOS>BOND
    1     1     2    1
    2     1     3    1
    3     1     4    1
    4     4     5    1
    5     4     6    1
    6     4     7    1
    7     7     8    1
    8     7     9    1
    9     7    10    1
   10    10    11    1
   11    10    12    1
   12    10    13    1
   13    13    14    1
   14    13    15    1
   15    15    16    1
   16    15    17    1
   17     1    18    1
   18    15    18    1
   19    18    19    1
   20    18    20    1
   21    13    21    1
   22    21    22    1
@<TRIPOS>SUBSTRUCTURE
       1 MOL1            1 RESIDUE      1      MOL     
@<SCITEGIC>MOL_PROPERTY
VConf Rank
SciTegic.value.IntegerValue
13

@<SCITEGIC>MOL_PROPERTY
Conf_Id
SciTegic.value.IntegerValue
41

@<SCITEGIC>MOL_PROPERTY
Delta U+W
SciTegic.value.DoubleValue
-2.114

@<SCITEGIC>MOL_PROPERTY
U+W
SciTegic.value.DoubleValue
4.310

@<SCITEGIC>MOL_PROPERTY
Grad RMS
SciTegic.value.DoubleValue
0.000000

@<SCITEGIC>MOL_PROPERTY
U
SciTegic.value.DoubleValue
6.598

@<SCITEGIC>MOL_PROPERTY
W
SciTegic.value.DoubleValue
-2.289

@<SCITEGIC>MOL_PROPERTY
W(PB)
SciTegic.value.DoubleValue
-4.294

@<SCITEGIC>MOL_PROPERTY
W(SA)
SciTegic.value.DoubleValue
2.005

@<SCITEGIC>MOL_PROPERTY
Valence
SciTegic.value.DoubleValue
12.082

@<SCITEGIC>MOL_PROPERTY
Coulomb
SciTegic.value.DoubleValue
-7.801

@<SCITEGIC>MOL_PROPERTY
VdW
SciTegic.value.DoubleValue
2.317

@<SCITEGIC>MOL_PROPERTY
VdW6
SciTegic.value.DoubleValue
-9.658

@<SCITEGIC>MOL_PROPERTY
VdW12
SciTegic.value.DoubleValue
11.975

@<SCITEGIC>MOL_PROPERTY
Bond
SciTegic.value.DoubleValue
0.267

@<SCITEGIC>MOL_PROPERTY
Angle
SciTegic.value.DoubleValue
3.051

@<SCITEGIC>MOL_PROPERTY
Pdih
SciTegic.value.DoubleValue
8.764

@<SCITEGIC>MOL_PROPERTY
Idih
SciTegic.value.DoubleValue
0.000

@<SCITEGIC>MOL_PROPERTY
Tether
SciTegic.value.DoubleValue
0.000

@<TRIPOS>MOLECULE
guest-5_confgen4.mol2 : confsearch ligand conformer 14
          22          22           1
SMALL
USER_CHARGES
 
@<TRIPOS>ATOM
       1    C1      20.098545   18.774980   21.233859 C.3        1 MOL1        -0.1685
       2    H1      20.321978   18.416346   20.219952 H          1 MOL1         0.0832
       3    H2      19.430970   18.027809   21.684697 H          1 MOL1         0.0832
       4    C2      19.385070   20.139648   21.107288 C.3        1 MOL1        -0.1685
       5    H3      20.087560   20.886492   20.713189 H          1 MOL1         0.0832
       6    H4      18.588006   20.050474   20.356757 H          1 MOL1         0.0832
       7    C3      18.758405   20.663018   22.418241 C.3        1 MOL1        -0.1685
       8    H5      17.910232   20.024224   22.698301 H          1 MOL1         0.0832
       9    H6      18.326897   21.652381   22.215542 H          1 MOL1         0.0832
      10    C4      19.741449   20.794504   23.613030 C.3        1 MOL1        -0.1761
      11    H7      20.626925   21.368028   23.310937 H          1 MOL1         0.0832
      12    H8      19.246910   21.397816   24.385060 H          1 MOL1         0.0832
      13    C5      20.178262   19.465794   24.282177 C.3        1 MOL1         0.1218
      14    H9      20.589462   19.729248   25.267461 H          1 MOL1         0.0789
      15    C6      21.290966   18.672531   23.548853 C.3        1 MOL1        -0.1761
      16    H10     22.253795   18.941990   24.002078 H          1 MOL1         0.0832
      17    H11     21.163964   17.602108   23.757506 H          1 MOL1         0.0832
      18    C7      21.426192   18.866112   22.018121 C.3        1 MOL1        -0.1685
      19    H12     21.918597   19.824600   21.805396 H          1 MOL1         0.0832
      20    H13     22.110403   18.093769   21.641267 H          1 MOL1         0.0832
      21    O1      19.050241   18.621965   24.497682 O.3        1 MOL1        -0.5509
      22    H14     19.379057   17.821796   24.955414 H          1 MOL1         0.3779
@<TRIPOS>BOND
    1     1     2    1
    2     1     3    1
    3     1     4    1
    4     4     5    1
    5     4     6    1
    6     4     7    1
    7     7     8    1
    8     7     9    1
    9     7    10    1
   10    10    11    1
   11    10    12    1
   12    10    13    1
   13    13    14    1
   14    13    15    1
   15    15    16    1
   16    15    17    1
   17     1    18    1
   18    15    18    1
   19    18    19    1
   20    18    20    1
   21    13    21    1
   22    21    22    1
@<TRIPOS>SUBSTRUCTURE
       1 MOL1            1 RESIDUE      1      MOL     
@<SCITEGIC>MOL_PROPERTY
VConf Rank
SciTegic.value.IntegerValue
14

@<SCITEGIC>MOL_PROPERTY
Conf_Id
SciTegic.value.IntegerValue
104

@<SCITEGIC>MOL_PROPERTY
Delta U+W
SciTegic.value.DoubleValue
-1.172

@<SCITEGIC>MOL_PROPERTY
U+W
SciTegic.value.DoubleValue
5.252

@<SCITEGIC>MOL_PROPERTY
Grad RMS
SciTegic.value.DoubleValue
0.000000

@<SCITEGIC>MOL_PROPERTY
U
SciTegic.value.DoubleValue
7.482

@<SCITEGIC>MOL_PROPERTY
W
SciTegic.value.DoubleValue
-2.230

@<SCITEGIC>MOL_PROPERTY
W(PB)
SciTegic.value.DoubleValue
-4.220

@<SCITEGIC>MOL_PROPERTY
W(SA)
SciTegic.value.DoubleValue
1.990

@<SCITEGIC>MOL_PROPERTY
Valence
SciTegic.value.DoubleValue
12.309

@<SCITEGIC>MOL_PROPERTY
Coulomb
SciTegic.value.DoubleValue
-7.084

@<SCITEGIC>MOL_PROPERTY
VdW
SciTegic.value.DoubleValue
2.258

@<SCITEGIC>MOL_PROPERTY
VdW6
SciTegic.value.DoubleValue
-9.770

@<SCITEGIC>MOL_PROPERTY
VdW12
SciTegic.value.DoubleValue
12.028

@<SCITEGIC>MOL_PROPERTY
Bond
SciTegic.value.DoubleValue
0.284

@<SCITEGIC>MOL_PROPERTY
Angle
SciTegic.value.DoubleValue
3.491

@<SCITEGIC>MOL_PROPERTY
Pdih
SciTegic.value.DoubleValue
8.535

@<SCITEGIC>MOL_PROPERTY
Idih
SciTegic.value.DoubleValue
0.000

@<SCITEGIC>MOL_PROPERTY
Tether
SciTegic.value.DoubleValue
0.000

@<TRIPOS>MOLECULE
guest-5_confgen4.mol2 : confsearch ligand conformer 15
          22          22           1
SMALL
USER_CHARGES
 
@<TRIPOS>ATOM
       1    C1      18.704699   20.430081   23.054935 C.3        1 MOL1        -0.1685
       2    H1      18.990167   21.295393   22.441562 H          1 MOL1         0.0832
       3    H2      17.748676   20.696083   23.526318 H          1 MOL1         0.0832
       4    C2      19.735559   20.187235   24.180918 C.3        1 MOL1        -0.1685
       5    H3      19.538932   20.898225   24.995214 H          1 MOL1         0.0832
       6    H4      19.565585   19.196350   24.622043 H          1 MOL1         0.0832
       7    C3      21.223177   20.336620   23.773057 C.3        1 MOL1        -0.1685
       8    H5      21.833944   19.732319   24.457965 H          1 MOL1         0.0832
       9    H6      21.529346   21.376629   23.950740 H          1 MOL1         0.0832
      10    C4      21.598495   19.982364   22.308529 C.3        1 MOL1        -0.1761
      11    H7      21.322246   20.819730   21.654724 H          1 MOL1         0.0832
      12    H8      22.692457   19.916993   22.245470 H          1 MOL1         0.0832
      13    C5      21.004912   18.679818   21.724563 C.3        1 MOL1         0.1218
      14    H9      21.647181   18.375088   20.885807 H          1 MOL1         0.0789
      15    C6      19.582826   18.872576   21.151167 C.3        1 MOL1        -0.1761
      16    H10     19.611701   19.673860   20.401387 H          1 MOL1         0.0832
      17    H11     19.309597   17.962760   20.600871 H          1 MOL1         0.0832
      18    C7      18.461190   19.182034   22.173400 C.3        1 MOL1        -0.1685
      19    H12     17.528034   19.332047   21.613555 H          1 MOL1         0.0832
      20    H13     18.285218   18.304564   22.810234 H          1 MOL1         0.0832
      21    O1      21.003113   17.650696   22.701842 O.3        1 MOL1        -0.5509
      22    H14     20.486653   18.026056   23.442558 H          1 MOL1         0.3779
@<TRIPOS>BOND
    1     1     2    1
    2     1     3    1
    3     1     4    1
    4     4     5    1
    5     4     6    1
    6     4     7    1
    7     7     8    1
    8     7     9    1
    9     7    10    1
   10    10    11    1
   11    10    12    1
   12    10    13    1
   13    13    14    1
   14    13    15    1
   15    15    16    1
   16    15    17    1
   17     1    18    1
   18    15    18    1
   19    18    19    1
   20    18    20    1
   21    13    21    1
   22    21    22    1
@<TRIPOS>SUBSTRUCTURE
       1 MOL1            1 RESIDUE      1      MOL     
@<SCITEGIC>MOL_PROPERTY
VConf Rank
SciTegic.value.IntegerValue
15

@<SCITEGIC>MOL_PROPERTY
Conf_Id
SciTegic.value.IntegerValue
99

@<SCITEGIC>MOL_PROPERTY
Delta U+W
SciTegic.value.DoubleValue
-3.852

@<SCITEGIC>MOL_PROPERTY
U+W
SciTegic.value.DoubleValue
2.572

@<SCITEGIC>MOL_PROPERTY
Grad RMS
SciTegic.value.DoubleValue
0.000000

@<SCITEGIC>MOL_PROPERTY
U
SciTegic.value.DoubleValue
3.922

@<SCITEGIC>MOL_PROPERTY
W
SciTegic.value.DoubleValue
-1.350

@<SCITEGIC>MOL_PROPERTY
W(PB)
SciTegic.value.DoubleValue
-3.345

@<SCITEGIC>MOL_PROPERTY
W(SA)
SciTegic.value.DoubleValue
1.995

@<SCITEGIC>MOL_PROPERTY
Valence
SciTegic.value.DoubleValue
12.571

@<SCITEGIC>MOL_PROPERTY
Coulomb
SciTegic.value.DoubleValue
-10.581

@<SCITEGIC>MOL_PROPERTY
VdW
SciTegic.value.DoubleValue
1.932

@<SCITEGIC>MOL_PROPERTY
VdW6
SciTegic.value.DoubleValue
-10.483

@<SCITEGIC>MOL_PROPERTY
VdW12
SciTegic.value.DoubleValue
12.415

@<SCITEGIC>MOL_PROPERTY
Bond
SciTegic.value.DoubleValue
0.268

@<SCITEGIC>MOL_PROPERTY
Angle
SciTegic.value.DoubleValue
3.728

@<SCITEGIC>MOL_PROPERTY
Pdih
SciTegic.value.DoubleValue
8.575

@<SCITEGIC>MOL_PROPERTY
Idih
SciTegic.value.DoubleValue
0.000

@<SCITEGIC>MOL_PROPERTY
Tether
SciTegic.value.DoubleValue
0.000

@<TRIPOS>MOLECULE
guest-5_confgen4.mol2 : confsearch ligand conformer 16
          22          22           1
SMALL
USER_CHARGES
 
@<TRIPOS>ATOM
       1    C1      19.193063   18.457096   21.832638 C.3        1 MOL1        -0.1685
       2    H1      19.117355   17.538761   21.234123 H          1 MOL1         0.0832
       3    H2      18.157848   18.804121   21.950778 H          1 MOL1         0.0832
       4    C2      20.016327   19.494145   21.013727 C.3        1 MOL1        -0.1685
       5    H3      20.296812   19.024734   20.060694 H          1 MOL1         0.0832
       6    H4      19.381351   20.345358   20.733914 H          1 MOL1         0.0832
       7    C3      21.313895   20.013025   21.684422 C.3        1 MOL1        -0.1685
       8    H5      21.889658   20.574925   20.936430 H          1 MOL1         0.0832
       9    H6      21.958519   19.165585   21.948758 H          1 MOL1         0.0832
      10    C4      21.120313   20.931207   22.923089 C.3        1 MOL1        -0.1761
      11    H7      22.042005   20.902809   23.518420 H          1 MOL1         0.0832
      12    H8      21.031721   21.968989   22.575013 H          1 MOL1         0.0832
      13    C5      19.921465   20.650344   23.862259 C.3        1 MOL1         0.1218
      14    H9      20.085641   21.240824   24.775031 H          1 MOL1         0.0789
      15    C6      19.729110   19.179387   24.306587 C.3        1 MOL1        -0.1761
      16    H10     20.486219   18.943996   25.065612 H          1 MOL1         0.0832
      17    H11     18.765145   19.114951   24.828715 H          1 MOL1         0.0832
      18    C7      19.772415   18.071550   23.217724 C.3        1 MOL1        -0.1685
      19    H12     20.800620   17.707311   23.100706 H          1 MOL1         0.0832
      20    H13     19.214256   17.205055   23.597683 H          1 MOL1         0.0832
      21    O1      18.726339   21.127225   23.264345 O.3        1 MOL1        -0.5509
      22    H14     18.625794   20.574504   22.463518 H          1 MOL1         0.3779
@<TRIPOS>BOND
    1     1     2    1
    2     1     3    1
    3     1     4    1
    4     4     5    1
    5     4     6    1
    6     4     7    1
    7     7     8    1
    8     7     9    1
    9     7    10    1
   10    10    11    1
   11    10    12    1
   12    10    13    1
   13    13    14    1
   14    13    15    1
   15    15    16    1
   16    15    17    1
   17     1    18    1
   18    15    18    1
   19    18    19    1
   20    18    20    1
   21    13    21    1
   22    21    22    1
@<TRIPOS>SUBSTRUCTURE
       1 MOL1            1 RESIDUE      1      MOL     
@<SCITEGIC>MOL_PROPERTY
VConf Rank
SciTegic.value.IntegerValue
16

@<SCITEGIC>MOL_PROPERTY
Conf_Id
SciTegic.value.IntegerValue
98

@<SCITEGIC>MOL_PROPERTY
Delta U+W
SciTegic.value.DoubleValue
0.930

@<SCITEGIC>MOL_PROPERTY
U+W
SciTegic.value.DoubleValue
7.353

@<SCITEGIC>MOL_PROPERTY
Grad RMS
SciTegic.value.DoubleValue
0.000000

@<SCITEGIC>MOL_PROPERTY
U
SciTegic.value.DoubleValue
8.455

@<SCITEGIC>MOL_PROPERTY
W
SciTegic.value.DoubleValue
-1.102

@<SCITEGIC>MOL_PROPERTY
W(PB)
SciTegic.value.DoubleValue
-3.101

@<SCITEGIC>MOL_PROPERTY
W(SA)
SciTegic.value.DoubleValue
2.000

@<SCITEGIC>MOL_PROPERTY
Valence
SciTegic.value.DoubleValue
15.601

@<SCITEGIC>MOL_PROPERTY
Coulomb
SciTegic.value.DoubleValue
-10.573

@<SCITEGIC>MOL_PROPERTY
VdW
SciTegic.value.DoubleValue
3.427

@<SCITEGIC>MOL_PROPERTY
VdW6
SciTegic.value.DoubleValue
-11.360

@<SCITEGIC>MOL_PROPERTY
VdW12
SciTegic.value.DoubleValue
14.787

@<SCITEGIC>MOL_PROPERTY
Bond
SciTegic.value.DoubleValue
0.471

@<SCITEGIC>MOL_PROPERTY
Angle
SciTegic.value.DoubleValue
5.445

@<SCITEGIC>MOL_PROPERTY
Pdih
SciTegic.value.DoubleValue
9.685

@<SCITEGIC>MOL_PROPERTY
Idih
SciTegic.value.DoubleValue
0.000

@<SCITEGIC>MOL_PROPERTY
Tether
SciTegic.value.DoubleValue
0.000

@<TRIPOS>MOLECULE
guest-5_confgen4.mol2 : confsearch ligand conformer 17
          22          22           1
SMALL
USER_CHARGES
 
@<TRIPOS>ATOM
       1    C1      21.137952   18.374483   23.247131 C.3        1 MOL1        -0.1685
       2    H1      20.812351   17.718570   22.429486 H          1 MOL1         0.0832
       3    H2      21.939243   17.820701   23.755037 H          1 MOL1         0.0832
       4    C2      19.972307   18.583414   24.247021 C.3        1 MOL1        -0.1685
       5    H3      19.680281   17.594387   24.625729 H          1 MOL1         0.0832
       6    H4      20.333431   19.141901   25.121267 H          1 MOL1         0.0832
       7    C3      18.702170   19.280222   23.685009 C.3        1 MOL1        -0.1685
       8    H5      18.668767   20.326122   24.016658 H          1 MOL1         0.0832
       9    H6      17.822018   18.809880   24.144080 H          1 MOL1         0.0832
      10    C4      18.548944   19.221763   22.142020 C.3        1 MOL1        -0.1761
      11    H7      18.646907   18.180771   21.809808 H          1 MOL1         0.0832
      12    H8      17.518313   19.502987   21.886873 H          1 MOL1         0.0832
      13    C5      19.531100   20.113179   21.326780 C.3        1 MOL1         0.1218
      14    H9      19.934311   19.507018   20.502730 H          1 MOL1         0.0789
      15    C6      20.723424   20.706110   22.118647 C.3        1 MOL1        -0.1761
      16    H10     21.267007   21.406436   21.471254 H          1 MOL1         0.0832
      17    H11     20.348127   21.317346   22.948184 H          1 MOL1         0.0832
      18    C7      21.741856   19.671532   22.659250 C.3        1 MOL1        -0.1685
      19    H12     22.428570   19.391789   21.848705 H          1 MOL1         0.0832
      20    H13     22.361304   20.159502   23.423999 H          1 MOL1         0.0832
      21    O1      18.799865   21.203421   20.777378 O.3        1 MOL1        -0.5509
      22    H14     19.427007   21.714268   20.224290 H          1 MOL1         0.3779
@<TRIPOS>BOND
    1     1     2    1
    2     1     3    1
    3     1     4    1
    4     4     5    1
    5     4     6    1
    6     4     7    1
    7     7     8    1
    8     7     9    1
    9     7    10    1
   10    10    11    1
   11    10    12    1
   12    10    13    1
   13    13    14    1
   14    13    15    1
   15    15    16    1
   16    15    17    1
   17     1    18    1
   18    15    18    1
   19    18    19    1
   20    18    20    1
   21    13    21    1
   22    21    22    1
@<TRIPOS>SUBSTRUCTURE
       1 MOL1            1 RESIDUE      1      MOL     
@<SCITEGIC>MOL_PROPERTY
VConf Rank
SciTegic.value.IntegerValue
17

@<SCITEGIC>MOL_PROPERTY
Conf_Id
SciTegic.value.IntegerValue
141

@<SCITEGIC>MOL_PROPERTY
Delta U+W
SciTegic.value.DoubleValue
0.000

@<SCITEGIC>MOL_PROPERTY
U+W
SciTegic.value.DoubleValue
6.423

@<SCITEGIC>MOL_PROPERTY
Grad RMS
SciTegic.value.DoubleValue
0.000000

@<SCITEGIC>MOL_PROPERTY
U
SciTegic.value.DoubleValue
8.781

@<SCITEGIC>MOL_PROPERTY
W
SciTegic.value.DoubleValue
-2.358

@<SCITEGIC>MOL_PROPERTY
W(PB)
SciTegic.value.DoubleValue
-4.373

@<SCITEGIC>MOL_PROPERTY
W(SA)
SciTegic.value.DoubleValue
2.015

@<SCITEGIC>MOL_PROPERTY
Valence
SciTegic.value.DoubleValue
13.328

@<SCITEGIC>MOL_PROPERTY
Coulomb
SciTegic.value.DoubleValue
-8.387

@<SCITEGIC>MOL_PROPERTY
VdW
SciTegic.value.DoubleValue
3.840

@<SCITEGIC>MOL_PROPERTY
VdW6
SciTegic.value.DoubleValue
-9.744

@<SCITEGIC>MOL_PROPERTY
VdW12
SciTegic.value.DoubleValue
13.584

@<SCITEGIC>MOL_PROPERTY
Bond
SciTegic.value.DoubleValue
0.436

@<SCITEGIC>MOL_PROPERTY
Angle
SciTegic.value.DoubleValue
3.478

@<SCITEGIC>MOL_PROPERTY
Pdih
SciTegic.value.DoubleValue
9.415

@<SCITEGIC>MOL_PROPERTY
Idih
SciTegic.value.DoubleValue
0.000

@<SCITEGIC>MOL_PROPERTY
Tether
SciTegic.value.DoubleValue
0.000

@<TRIPOS>MOLECULE
guest-5_confgen4.mol2 : confsearch ligand conformer 18
          22          22           1
SMALL
USER_CHARGES
 
@<TRIPOS>ATOM
       1    C1      21.645701   19.509485   22.121136 C.3        1 MOL1        -0.1685
       2    H1      21.502157   18.433038   21.956014 H          1 MOL1         0.0832
       3    H2      22.668218   19.734085   21.788093 H          1 MOL1         0.0832
       4    C2      21.555720   19.855345   23.627104 C.3        1 MOL1        -0.1685
       5    H3      22.427711   19.424434   24.137793 H          1 MOL1         0.0832
       6    H4      21.641351   20.942887   23.756710 H          1 MOL1         0.0832
       7    C3      20.280836   19.353890   24.343724 C.3        1 MOL1        -0.1685
       8    H5      20.304702   19.718215   25.379834 H          1 MOL1         0.0832
       9    H6      20.307354   18.257654   24.410980 H          1 MOL1         0.0832
      10    C4      18.947608   19.798539   23.694132 C.3        1 MOL1        -0.1761
      11    H7      18.142223   19.583307   24.408635 H          1 MOL1         0.0832
      12    H8      18.935917   20.885175   23.538944 H          1 MOL1         0.0832
      13    C5      18.653813   19.059399   22.369374 C.3        1 MOL1         0.1218
      14    H9      19.066973   18.043192   22.443304 H          1 MOL1         0.0789
      15    C6      19.248245   19.734296   21.112210 C.3        1 MOL1        -0.1761
      16    H10     19.261736   18.985753   20.309495 H          1 MOL1         0.0832
      17    H11     18.570636   20.528529   20.771402 H          1 MOL1         0.0832
      18    C7      20.668287   20.337115   21.254111 C.3        1 MOL1        -0.1685
      19    H12     21.091880   20.448662   20.246664 H          1 MOL1         0.0832
      20    H13     20.596134   21.356475   21.657110 H          1 MOL1         0.0832
      21    O1      17.244718   18.970066   22.197066 O.3        1 MOL1        -0.5509
      22    H14     16.897135   18.472972   22.966937 H          1 MOL1         0.3779
@<TRIPOS>BOND
    1     1     2    1
    2     1     3    1
    3     1     4    1
    4     4     5    1
    5     4     6    1
    6     4     7    1
    7     7     8    1
    8     7     9    1
    9     7    10    1
   10    10    11    1
   11    10    12    1
   12    10    13    1
   13    13    14    1
   14    13    15    1
   15    15    16    1
   16    15    17    1
   17     1    18    1
   18    15    18    1
   19    18    19    1
   20    18    20    1
   21    13    21    1
   22    21    22    1
@<TRIPOS>SUBSTRUCTURE
       1 MOL1            1 RESIDUE      1      MOL     
@<SCITEGIC>MOL_PROPERTY
VConf Rank
SciTegic.value.IntegerValue
18

@<SCITEGIC>MOL_PROPERTY
Conf_Id
SciTegic.value.IntegerValue
144

@<SCITEGIC>MOL_PROPERTY
Delta U+W
SciTegic.value.DoubleValue
-3.291

@<SCITEGIC>MOL_PROPERTY
U+W
SciTegic.value.DoubleValue
3.132

@<SCITEGIC>MOL_PROPERTY
Grad RMS
SciTegic.value.DoubleValue
0.000000

@<SCITEGIC>MOL_PROPERTY
U
SciTegic.value.DoubleValue
5.411

@<SCITEGIC>MOL_PROPERTY
W
SciTegic.value.DoubleValue
-2.279

@<SCITEGIC>MOL_PROPERTY
W(PB)
SciTegic.value.DoubleValue
-4.300

@<SCITEGIC>MOL_PROPERTY
W(SA)
SciTegic.value.DoubleValue
2.021

@<SCITEGIC>MOL_PROPERTY
Valence
SciTegic.value.DoubleValue
11.909

@<SCITEGIC>MOL_PROPERTY
Coulomb
SciTegic.value.DoubleValue
-8.733

@<SCITEGIC>MOL_PROPERTY
VdW
SciTegic.value.DoubleValue
2.236

@<SCITEGIC>MOL_PROPERTY
VdW6
SciTegic.value.DoubleValue
-8.936

@<SCITEGIC>MOL_PROPERTY
VdW12
SciTegic.value.DoubleValue
11.172

@<SCITEGIC>MOL_PROPERTY
Bond
SciTegic.value.DoubleValue
0.223

@<SCITEGIC>MOL_PROPERTY
Angle
SciTegic.value.DoubleValue
2.457

@<SCITEGIC>MOL_PROPERTY
Pdih
SciTegic.value.DoubleValue
9.228

@<SCITEGIC>MOL_PROPERTY
Idih
SciTegic.value.DoubleValue
0.000

@<SCITEGIC>MOL_PROPERTY
Tether
SciTegic.value.DoubleValue
0.000

@<TRIPOS>MOLECULE
guest-5_confgen4.mol2 : confsearch ligand conformer 19
          22          22           1
SMALL
USER_CHARGES
 
@<TRIPOS>ATOM
       1    C1      21.169984   18.724930   21.756609 C.3        1 MOL1        -0.1685
       2    H1      22.086983   18.203353   21.450077 H          1 MOL1         0.0832
       3    H2      20.535429   18.775510   20.861365 H          1 MOL1         0.0832
       4    C2      21.562917   20.142462   22.234397 C.3        1 MOL1        -0.1685
       5    H3      21.904495   20.095101   23.277400 H          1 MOL1         0.0832
       6    H4      22.432824   20.483775   21.656673 H          1 MOL1         0.0832
       7    C3      20.452035   21.211920   22.099772 C.3        1 MOL1        -0.1685
       8    H5      20.456948   21.605178   21.073985 H          1 MOL1         0.0832
       9    H6      20.714228   22.060986   22.745806 H          1 MOL1         0.0832
      10    C4      19.011463   20.751355   22.432597 C.3        1 MOL1        -0.1761
      11    H7      18.406677   21.648987   22.619574 H          1 MOL1         0.0832
      12    H8      18.571526   20.275302   21.546750 H          1 MOL1         0.0832
      13    C5      18.896479   19.791864   23.638312 C.3        1 MOL1         0.1218
      14    H9      19.655067   20.052547   24.390015 H          1 MOL1         0.0789
      15    C6      19.056368   18.308957   23.232847 C.3        1 MOL1        -0.1761
      16    H10     18.717191   17.678191   24.065448 H          1 MOL1         0.0832
      17    H11     18.388145   18.085230   22.391117 H          1 MOL1         0.0832
      18    C7      20.496663   17.880223   22.864806 C.3        1 MOL1        -0.1685
      19    H12     21.123067   17.896396   23.767182 H          1 MOL1         0.0832
      20    H13     20.469625   16.831696   22.538237 H          1 MOL1         0.0832
      21    O1      17.606535   19.950132   24.213819 O.3        1 MOL1        -0.5509
      22    H14     16.961422   19.711529   23.516640 H          1 MOL1         0.3779
@<TRIPOS>BOND
    1     1     2    1
    2     1     3    1
    3     1     4    1
    4     4     5    1
    5     4     6    1
    6     4     7    1
    7     7     8    1
    8     7     9    1
    9     7    10    1
   10    10    11    1
   11    10    12    1
   12    10    13    1
   13    13    14    1
   14    13    15    1
   15    15    16    1
   16    15    17    1
   17     1    18    1
   18    15    18    1
   19    18    19    1
   20    18    20    1
   21    13    21    1
   22    21    22    1
@<TRIPOS>SUBSTRUCTURE
       1 MOL1            1 RESIDUE      1      MOL     
@<SCITEGIC>MOL_PROPERTY
VConf Rank
SciTegic.value.IntegerValue
19

@<SCITEGIC>MOL_PROPERTY
Conf_Id
SciTegic.value.IntegerValue
76

@<SCITEGIC>MOL_PROPERTY
Delta U+W
SciTegic.value.DoubleValue
-3.175

@<SCITEGIC>MOL_PROPERTY
U+W
SciTegic.value.DoubleValue
3.248

@<SCITEGIC>MOL_PROPERTY
Grad RMS
SciTegic.value.DoubleValue
0.000000

@<SCITEGIC>MOL_PROPERTY
U
SciTegic.value.DoubleValue
5.336

@<SCITEGIC>MOL_PROPERTY
W
SciTegic.value.DoubleValue
-2.088

@<SCITEGIC>MOL_PROPERTY
W(PB)
SciTegic.value.DoubleValue
-4.098

@<SCITEGIC>MOL_PROPERTY
W(SA)
SciTegic.value.DoubleValue
2.010

@<SCITEGIC>MOL_PROPERTY
Valence
SciTegic.value.DoubleValue
12.390

@<SCITEGIC>MOL_PROPERTY
Coulomb
SciTegic.value.DoubleValue
-9.270

@<SCITEGIC>MOL_PROPERTY
VdW
SciTegic.value.DoubleValue
2.216

@<SCITEGIC>MOL_PROPERTY
VdW6
SciTegic.value.DoubleValue
-8.967

@<SCITEGIC>MOL_PROPERTY
VdW12
SciTegic.value.DoubleValue
11.183

@<SCITEGIC>MOL_PROPERTY
Bond
SciTegic.value.DoubleValue
0.218

@<SCITEGIC>MOL_PROPERTY
Angle
SciTegic.value.DoubleValue
2.426

@<SCITEGIC>MOL_PROPERTY
Pdih
SciTegic.value.DoubleValue
9.745

@<SCITEGIC>MOL_PROPERTY
Idih
SciTegic.value.DoubleValue
0.000

@<SCITEGIC>MOL_PROPERTY
Tether
SciTegic.value.DoubleValue
0.000

@<TRIPOS>MOLECULE
guest-5_confgen4.mol2 : confsearch ligand conformer 20
          22          22           1
SMALL
USER_CHARGES
 
@<TRIPOS>ATOM
       1    C1      20.697350   19.765922   24.442364 C.3        1 MOL1        -0.1685
       2    H1      21.653954   20.204388   24.757698 H          1 MOL1         0.0832
       3    H2      20.148710   19.549519   25.369175 H          1 MOL1         0.0832
       4    C2      20.992816   18.434063   23.711935 C.3        1 MOL1        -0.1685
       5    H3      21.916869   18.534113   23.126619 H          1 MOL1         0.0832
       6    H4      21.207970   17.670640   24.471986 H          1 MOL1         0.0832
       7    C3      19.856144   17.924156   22.795684 C.3        1 MOL1        -0.1685
       8    H5      18.871817   18.129855   23.237978 H          1 MOL1         0.0832
       9    H6      19.937228   16.830940   22.727884 H          1 MOL1         0.0832
      10    C4      19.943865   18.493941   21.357028 C.3        1 MOL1        -0.1761
      11    H7      20.958349   18.337935   20.968445 H          1 MOL1         0.0832
      12    H8      19.285031   17.904378   20.706053 H          1 MOL1         0.0832
      13    C5      19.570197   19.984284   21.188661 C.3        1 MOL1         0.1218
      14    H9      19.857410   20.269579   20.166305 H          1 MOL1         0.0789
      15    C6      20.292397   20.957980   22.153458 C.3        1 MOL1        -0.1761
      16    H10     21.379454   20.852499   22.043638 H          1 MOL1         0.0832
      17    H11     20.059944   21.980021   21.827597 H          1 MOL1         0.0832
      18    C7      19.894649   20.822431   23.646321 C.3        1 MOL1        -0.1685
      19    H12     20.034925   21.793942   24.139180 H          1 MOL1         0.0832
      20    H13     18.821839   20.605293   23.732175 H          1 MOL1         0.0832
      21    O1      18.158963   20.131435   21.310260 O.3        1 MOL1        -0.5509
      22    H14     17.972338   21.090496   21.249782 H          1 MOL1         0.3779
@<TRIPOS>BOND
    1     1     2    1
    2     1     3    1
    3     1     4    1
    4     4     5    1
    5     4     6    1
    6     4     7    1
    7     7     8    1
    8     7     9    1
    9     7    10    1
   10    10    11    1
   11    10    12    1
   12    10    13    1
   13    13    14    1
   14    13    15    1
   15    15    16    1
   16    15    17    1
   17     1    18    1
   18    15    18    1
   19    18    19    1
   20    18    20    1
   21    13    21    1
   22    21    22    1
@<TRIPOS>SUBSTRUCTURE
       1 MOL1            1 RESIDUE      1      MOL     
@<SCITEGIC>MOL_PROPERTY
VConf Rank
SciTegic.value.IntegerValue
20

@<SCITEGIC>MOL_PROPERTY
Conf_Id
SciTegic.value.IntegerValue
95

@<SCITEGIC>MOL_PROPERTY
Delta U+W
SciTegic.value.DoubleValue
-2.289

@<SCITEGIC>MOL_PROPERTY
U+W
SciTegic.value.DoubleValue
4.134

@<SCITEGIC>MOL_PROPERTY
Grad RMS
SciTegic.value.DoubleValue
0.000000

@<SCITEGIC>MOL_PROPERTY
U
SciTegic.value.DoubleValue
6.373

@<SCITEGIC>MOL_PROPERTY
W
SciTegic.value.DoubleValue
-2.240

@<SCITEGIC>MOL_PROPERTY
W(PB)
SciTegic.value.DoubleValue
-4.254

@<SCITEGIC>MOL_PROPERTY
W(SA)
SciTegic.value.DoubleValue
2.015

@<SCITEGIC>MOL_PROPERTY
Valence
SciTegic.value.DoubleValue
12.093

@<SCITEGIC>MOL_PROPERTY
Coulomb
SciTegic.value.DoubleValue
-8.058

@<SCITEGIC>MOL_PROPERTY
VdW
SciTegic.value.DoubleValue
2.339

@<SCITEGIC>MOL_PROPERTY
VdW6
SciTegic.value.DoubleValue
-9.683

@<SCITEGIC>MOL_PROPERTY
VdW12
SciTegic.value.DoubleValue
12.022

@<SCITEGIC>MOL_PROPERTY
Bond
SciTegic.value.DoubleValue
0.268

@<SCITEGIC>MOL_PROPERTY
Angle
SciTegic.value.DoubleValue
3.005

@<SCITEGIC>MOL_PROPERTY
Pdih
SciTegic.value.DoubleValue
8.820

@<SCITEGIC>MOL_PROPERTY
Idih
SciTegic.value.DoubleValue
0.000

@<SCITEGIC>MOL_PROPERTY
Tether
SciTegic.value.DoubleValue
0.000

@<TRIPOS>MOLECULE
guest-5_confgen4.mol2 : confsearch ligand conformer 21
          22          22           1
SMALL
USER_CHARGES
 
@<TRIPOS>ATOM
       1    C1      21.319635   18.980433   21.438813 C.3        1 MOL1        -0.1685
       2    H1      22.401770   19.167649   21.412573 H          1 MOL1         0.0832
       3    H2      21.114197   18.302089   20.599507 H          1 MOL1         0.0832
       4    C2      20.590182   20.321964   21.188769 C.3        1 MOL1        -0.1685
       5    H3      21.151418   21.137767   21.664122 H          1 MOL1         0.0832
       6    H4      20.624906   20.531276   20.110909 H          1 MOL1         0.0832
       7    C3      19.118435   20.365764   21.661587 C.3        1 MOL1        -0.1685
       8    H5      18.619904   19.402887   21.485077 H          1 MOL1         0.0832
       9    H6      18.585079   21.102660   21.046005 H          1 MOL1         0.0832
      10    C4      18.979411   20.798734   23.142978 C.3        1 MOL1        -0.1761
      11    H7      19.559063   21.716777   23.304521 H          1 MOL1         0.0832
      12    H8      17.934420   21.077681   23.330503 H          1 MOL1         0.0832
      13    C5      19.402167   19.754296   24.201355 C.3        1 MOL1         0.1218
      14    H9      19.410413   20.271064   25.171914 H          1 MOL1         0.0789
      15    C6      20.812648   19.146198   23.998644 C.3        1 MOL1        -0.1761
      16    H10     21.565624   19.944431   23.980191 H          1 MOL1         0.0832
      17    H11     21.036655   18.543232   24.888072 H          1 MOL1         0.0832
      18    C7      20.966533   18.238888   22.750226 C.3        1 MOL1        -0.1685
      19    H12     21.757853   17.502600   22.944930 H          1 MOL1         0.0832
      20    H13     20.052185   17.649187   22.602447 H          1 MOL1         0.0832
      21    O1      18.426218   18.718375   24.258663 O.3        1 MOL1        -0.5509
      22    H14     17.557620   19.155864   24.369686 H          1 MOL1         0.3779
@<TRIPOS>BOND
    1     1     2    1
    2     1     3    1
    3     1     4    1
    4     4     5    1
    5     4     6    1
    6     4     7    1
    7     7     8    1
    8     7     9    1
    9     7    10    1
   10    10    11    1
   11    10    12    1
   12    10    13    1
   13    13    14    1
   14    13    15    1
   15    15    16    1
   16    15    17    1
   17     1    18    1
   18    15    18    1
   19    18    19    1
   20    18    20    1
   21    13    21    1
   22    21    22    1
@<TRIPOS>SUBSTRUCTURE
       1 MOL1            1 RESIDUE      1      MOL     
@<SCITEGIC>MOL_PROPERTY
VConf Rank
SciTegic.value.IntegerValue
21

@<SCITEGIC>MOL_PROPERTY
Conf_Id
SciTegic.value.IntegerValue
41

@<SCITEGIC>MOL_PROPERTY
Delta U+W
SciTegic.value.DoubleValue
-2.114

@<SCITEGIC>MOL_PROPERTY
U+W
SciTegic.value.DoubleValue
4.310

@<SCITEGIC>MOL_PROPERTY
Grad RMS
SciTegic.value.DoubleValue
0.000000

@<SCITEGIC>MOL_PROPERTY
U
SciTegic.value.DoubleValue
6.598

@<SCITEGIC>MOL_PROPERTY
W
SciTegic.value.DoubleValue
-2.289

@<SCITEGIC>MOL_PROPERTY
W(PB)
SciTegic.value.DoubleValue
-4.294

@<SCITEGIC>MOL_PROPERTY
W(SA)
SciTegic.value.DoubleValue
2.005

@<SCITEGIC>MOL_PROPERTY
Valence
SciTegic.value.DoubleValue
12.082

@<SCITEGIC>MOL_PROPERTY
Coulomb
SciTegic.value.DoubleValue
-7.801

@<SCITEGIC>MOL_PROPERTY
VdW
SciTegic.value.DoubleValue
2.317

@<SCITEGIC>MOL_PROPERTY
VdW6
SciTegic.value.DoubleValue
-9.658

@<SCITEGIC>MOL_PROPERTY
VdW12
SciTegic.value.DoubleValue
11.975

@<SCITEGIC>MOL_PROPERTY
Bond
SciTegic.value.DoubleValue
0.267

@<SCITEGIC>MOL_PROPERTY
Angle
SciTegic.value.DoubleValue
3.051

@<SCITEGIC>MOL_PROPERTY
Pdih
SciTegic.value.DoubleValue
8.764

@<SCITEGIC>MOL_PROPERTY
Idih
SciTegic.value.DoubleValue
0.000

@<SCITEGIC>MOL_PROPERTY
Tether
SciTegic.value.DoubleValue
0.000

@<TRIPOS>MOLECULE
guest-5_confgen4.mol2 : confsearch ligand conformer 22
          22          22           1
SMALL
USER_CHARGES
 
@<TRIPOS>ATOM
       1    C1      21.751215   19.570269   22.750961 C.3        1 MOL1        -0.1685
       2    H1      22.811360   19.833616   22.866247 H          1 MOL1         0.0832
       3    H2      21.709631   18.473319   22.704635 H          1 MOL1         0.0832
       4    C2      21.249482   20.192474   21.428648 C.3        1 MOL1        -0.1685
       5    H3      21.240146   21.287249   21.517879 H          1 MOL1         0.0832
       6    H4      21.973179   19.961191   20.635344 H          1 MOL1         0.0832
       7    C3      19.858334   19.700803   20.972372 C.3        1 MOL1        -0.1685
       8    H5      19.922099   18.644371   20.679498 H          1 MOL1         0.0832
       9    H6      19.591207   20.244215   20.056145 H          1 MOL1         0.0832
      10    C4      18.717087   19.897143   22.006873 C.3        1 MOL1        -0.1761
      11    H7      18.702170   20.936538   22.358574 H          1 MOL1         0.0832
      12    H8      17.764449   19.748072   21.482619 H          1 MOL1         0.0832
      13    C5      18.726683   18.931345   23.219792 C.3        1 MOL1         0.1218
      14    H9      17.722484   18.975326   23.665805 H          1 MOL1         0.0789
      15    C6      19.719561   19.283879   24.357796 C.3        1 MOL1        -0.1761
      16    H10     19.173056   19.855668   25.119014 H          1 MOL1         0.0832
      17    H11     20.030488   18.358709   24.860644 H          1 MOL1         0.0832
      18    C7      20.985554   20.094869   23.985698 C.3        1 MOL1        -0.1685
      19    H12     20.722163   21.151013   23.838733 H          1 MOL1         0.0832
      20    H13     21.661525   20.077890   24.851408 H          1 MOL1         0.0832
      21    O1      18.948100   17.591367   22.788106 O.3        1 MOL1        -0.5509
      22    H14     18.903915   17.026305   23.586018 H          1 MOL1         0.3779
@<TRIPOS>BOND
    1     1     2    1
    2     1     3    1
    3     1     4    1
    4     4     5    1
    5     4     6    1
    6     4     7    1
    7     7     8    1
    8     7     9    1
    9     7    10    1
   10    10    11    1
   11    10    12    1
   12    10    13    1
   13    13    14    1
   14    13    15    1
   15    15    16    1
   16    15    17    1
   17     1    18    1
   18    15    18    1
   19    18    19    1
   20    18    20    1
   21    13    21    1
   22    21    22    1
@<TRIPOS>SUBSTRUCTURE
       1 MOL1            1 RESIDUE      1      MOL     
@<SCITEGIC>MOL_PROPERTY
VConf Rank
SciTegic.value.IntegerValue
22

@<SCITEGIC>MOL_PROPERTY
Conf_Id
SciTegic.value.IntegerValue
104

@<SCITEGIC>MOL_PROPERTY
Delta U+W
SciTegic.value.DoubleValue
-1.172

@<SCITEGIC>MOL_PROPERTY
U+W
SciTegic.value.DoubleValue
5.252

@<SCITEGIC>MOL_PROPERTY
Grad RMS
SciTegic.value.DoubleValue
0.000000

@<SCITEGIC>MOL_PROPERTY
U
SciTegic.value.DoubleValue
7.482

@<SCITEGIC>MOL_PROPERTY
W
SciTegic.value.DoubleValue
-2.230

@<SCITEGIC>MOL_PROPERTY
W(PB)
SciTegic.value.DoubleValue
-4.220

@<SCITEGIC>MOL_PROPERTY
W(SA)
SciTegic.value.DoubleValue
1.990

@<SCITEGIC>MOL_PROPERTY
Valence
SciTegic.value.DoubleValue
12.309

@<SCITEGIC>MOL_PROPERTY
Coulomb
SciTegic.value.DoubleValue
-7.084

@<SCITEGIC>MOL_PROPERTY
VdW
SciTegic.value.DoubleValue
2.258

@<SCITEGIC>MOL_PROPERTY
VdW6
SciTegic.value.DoubleValue
-9.770

@<SCITEGIC>MOL_PROPERTY
VdW12
SciTegic.value.DoubleValue
12.028

@<SCITEGIC>MOL_PROPERTY
Bond
SciTegic.value.DoubleValue
0.284

@<SCITEGIC>MOL_PROPERTY
Angle
SciTegic.value.DoubleValue
3.491

@<SCITEGIC>MOL_PROPERTY
Pdih
SciTegic.value.DoubleValue
8.535

@<SCITEGIC>MOL_PROPERTY
Idih
SciTegic.value.DoubleValue
0.000

@<SCITEGIC>MOL_PROPERTY
Tether
SciTegic.value.DoubleValue
0.000

@<TRIPOS>MOLECULE
guest-5_confgen4.mol2 : confsearch ligand conformer 23
          22          22           1
SMALL
USER_CHARGES
 
@<TRIPOS>ATOM
       1    C1      19.076967   20.873099   22.951056 C.3        1 MOL1        -0.1685
       2    H1      18.621014   20.409866   23.836497 H          1 MOL1         0.0832
       3    H2      18.574933   21.842081   22.824665 H          1 MOL1         0.0832
       4    C2      18.803632   20.030284   21.684393 C.3        1 MOL1        -0.1685
       5    H3      17.782983   20.241429   21.336625 H          1 MOL1         0.0832
       6    H4      19.457101   20.373101   20.871502 H          1 MOL1         0.0832
       7    C3      18.935147   18.495875   21.857502 C.3        1 MOL1        -0.1685
       8    H5      19.169392   18.054306   20.879002 H          1 MOL1         0.0832
       9    H6      17.950999   18.091544   22.131177 H          1 MOL1         0.0832
      10    C4      19.959344   17.983287   22.906061 C.3        1 MOL1        -0.1761
      11    H7      19.521047   18.071339   23.908607 H          1 MOL1         0.0832
      12    H8      20.097575   16.906099   22.746186 H          1 MOL1         0.0832
      13    C5      21.353784   18.650716   22.913521 C.3        1 MOL1         0.1218
      14    H9      22.049718   17.948710   23.394920 H          1 MOL1         0.0789
      15    C6      21.390567   19.954859   23.741849 C.3        1 MOL1        -0.1761
      16    H10     21.043733   19.734674   24.759830 H          1 MOL1         0.0832
      17    H11     22.438758   20.263787   23.847215 H          1 MOL1         0.0832
      18    C7      20.581078   21.151537   23.183743 C.3        1 MOL1        -0.1685
      19    H12     20.671713   21.981172   23.898027 H          1 MOL1         0.0832
      20    H13     21.041664   21.511408   22.253779 H          1 MOL1         0.0832
      21    O1      21.794084   18.900582   21.587674 O.3        1 MOL1        -0.5509
      22    H14     21.088478   19.457766   21.203029 H          1 MOL1         0.3779
@<TRIPOS>BOND
    1     1     2    1
    2     1     3    1
    3     1     4    1
    4     4     5    1
    5     4     6    1
    6     4     7    1
    7     7     8    1
    8     7     9    1
    9     7    10    1
   10    10    11    1
   11    10    12    1
   12    10    13    1
   13    13    14    1
   14    13    15    1
   15    15    16    1
   16    15    17    1
   17     1    18    1
   18    15    18    1
   19    18    19    1
   20    18    20    1
   21    13    21    1
   22    21    22    1
@<TRIPOS>SUBSTRUCTURE
       1 MOL1            1 RESIDUE      1      MOL     
@<SCITEGIC>MOL_PROPERTY
VConf Rank
SciTegic.value.IntegerValue
23

@<SCITEGIC>MOL_PROPERTY
Conf_Id
SciTegic.value.IntegerValue
99

@<SCITEGIC>MOL_PROPERTY
Delta U+W
SciTegic.value.DoubleValue
-3.852

@<SCITEGIC>MOL_PROPERTY
U+W
SciTegic.value.DoubleValue
2.572

@<SCITEGIC>MOL_PROPERTY
Grad RMS
SciTegic.value.DoubleValue
0.000000

@<SCITEGIC>MOL_PROPERTY
U
SciTegic.value.DoubleValue
3.922

@<SCITEGIC>MOL_PROPERTY
W
SciTegic.value.DoubleValue
-1.350

@<SCITEGIC>MOL_PROPERTY
W(PB)
SciTegic.value.DoubleValue
-3.345

@<SCITEGIC>MOL_PROPERTY
W(SA)
SciTegic.value.DoubleValue
1.995

@<SCITEGIC>MOL_PROPERTY
Valence
SciTegic.value.DoubleValue
12.571

@<SCITEGIC>MOL_PROPERTY
Coulomb
SciTegic.value.DoubleValue
-10.581

@<SCITEGIC>MOL_PROPERTY
VdW
SciTegic.value.DoubleValue
1.932

@<SCITEGIC>MOL_PROPERTY
VdW6
SciTegic.value.DoubleValue
-10.483

@<SCITEGIC>MOL_PROPERTY
VdW12
SciTegic.value.DoubleValue
12.415

@<SCITEGIC>MOL_PROPERTY
Bond
SciTegic.value.DoubleValue
0.268

@<SCITEGIC>MOL_PROPERTY
Angle
SciTegic.value.DoubleValue
3.728

@<SCITEGIC>MOL_PROPERTY
Pdih
SciTegic.value.DoubleValue
8.575

@<SCITEGIC>MOL_PROPERTY
Idih
SciTegic.value.DoubleValue
0.000

@<SCITEGIC>MOL_PROPERTY
Tether
SciTegic.value.DoubleValue
0.000

@<TRIPOS>MOLECULE
guest-5_confgen4.mol2 : confsearch ligand conformer 24
          22          22           1
SMALL
USER_CHARGES
 
@<TRIPOS>ATOM
       1    C1      21.258955   19.363294   23.828065 C.3        1 MOL1        -0.1685
       2    H1      22.291914   19.464889   24.188570 H          1 MOL1         0.0832
       3    H2      20.720358   18.869312   24.647790 H          1 MOL1         0.0832
       4    C2      21.280281   18.445761   22.570476 C.3        1 MOL1        -0.1685
       5    H3      22.322450   18.150088   22.386755 H          1 MOL1         0.0832
       6    H4      20.751924   17.505823   22.778824 H          1 MOL1         0.0832
       7    C3      20.729741   19.071907   21.263725 C.3        1 MOL1        -0.1685
       8    H5      20.978799   18.404054   20.427861 H          1 MOL1         0.0832
       9    H6      21.268208   20.001968   21.043250 H          1 MOL1         0.0832
      10    C4      19.197978   19.330814   21.225005 C.3        1 MOL1        -0.1761
      11    H7      18.999264   20.100294   20.467935 H          1 MOL1         0.0832
      12    H8      18.702271   18.423897   20.853829 H          1 MOL1         0.0832
      13    C5      18.491841   19.743298   22.540066 C.3        1 MOL1         0.1218
      14    H9      17.486949   20.095342   22.266145 H          1 MOL1         0.0789
      15    C6      19.161731   20.880675   23.349859 C.3        1 MOL1        -0.1761
      16    H10     18.958540   21.833371   22.844068 H          1 MOL1         0.0832
      17    H11     18.643394   20.948693   24.315621 H          1 MOL1         0.0832
      18    C7      20.689623   20.789696   23.618315 C.3        1 MOL1        -0.1685
      19    H12     21.237881   21.292388   22.811914 H          1 MOL1         0.0832
      20    H13     20.909302   21.385631   24.514600 H          1 MOL1         0.0832
      21    O1      18.324867   18.603571   23.368549 O.3        1 MOL1        -0.5509
      22    H14     19.239600   18.331134   23.582965 H          1 MOL1         0.3779
@<TRIPOS>BOND
    1     1     2    1
    2     1     3    1
    3     1     4    1
    4     4     5    1
    5     4     6    1
    6     4     7    1
    7     7     8    1
    8     7     9    1
    9     7    10    1
   10    10    11    1
   11    10    12    1
   12    10    13    1
   13    13    14    1
   14    13    15    1
   15    15    16    1
   16    15    17    1
   17     1    18    1
   18    15    18    1
   19    18    19    1
   20    18    20    1
   21    13    21    1
   22    21    22    1
@<TRIPOS>SUBSTRUCTURE
       1 MOL1            1 RESIDUE      1      MOL     
@<SCITEGIC>MOL_PROPERTY
VConf Rank
SciTegic.value.IntegerValue
24

@<SCITEGIC>MOL_PROPERTY
Conf_Id
SciTegic.value.IntegerValue
98

@<SCITEGIC>MOL_PROPERTY
Delta U+W
SciTegic.value.DoubleValue
0.930

@<SCITEGIC>MOL_PROPERTY
U+W
SciTegic.value.DoubleValue
7.353

@<SCITEGIC>MOL_PROPERTY
Grad RMS
SciTegic.value.DoubleValue
0.000000

@<SCITEGIC>MOL_PROPERTY
U
SciTegic.value.DoubleValue
8.455

@<SCITEGIC>MOL_PROPERTY
W
SciTegic.value.DoubleValue
-1.102

@<SCITEGIC>MOL_PROPERTY
W(PB)
SciTegic.value.DoubleValue
-3.101

@<SCITEGIC>MOL_PROPERTY
W(SA)
SciTegic.value.DoubleValue
2.000

@<SCITEGIC>MOL_PROPERTY
Valence
SciTegic.value.DoubleValue
15.601

@<SCITEGIC>MOL_PROPERTY
Coulomb
SciTegic.value.DoubleValue
-10.573

@<SCITEGIC>MOL_PROPERTY
VdW
SciTegic.value.DoubleValue
3.427

@<SCITEGIC>MOL_PROPERTY
VdW6
SciTegic.value.DoubleValue
-11.360

@<SCITEGIC>MOL_PROPERTY
VdW12
SciTegic.value.DoubleValue
14.787

@<SCITEGIC>MOL_PROPERTY
Bond
SciTegic.value.DoubleValue
0.471

@<SCITEGIC>MOL_PROPERTY
Angle
SciTegic.value.DoubleValue
5.445

@<SCITEGIC>MOL_PROPERTY
Pdih
SciTegic.value.DoubleValue
9.685

@<SCITEGIC>MOL_PROPERTY
Idih
SciTegic.value.DoubleValue
0.000

@<SCITEGIC>MOL_PROPERTY
Tether
SciTegic.value.DoubleValue
0.000

@<TRIPOS>MOLECULE
guest-5_confgen4.mol2 : confsearch ligand conformer 25
          22          22           1
SMALL
USER_CHARGES
 
@<TRIPOS>ATOM
       1    C1      19.163259   18.400849   21.683563 C.3        1 MOL1        -0.1685
       2    H1      18.275527   19.032293   21.817694 H          1 MOL1         0.0832
       3    H2      18.840854   17.594998   21.010233 H          1 MOL1         0.0832
       4    C2      19.571283   17.775292   23.041633 C.3        1 MOL1        -0.1685
       5    H3      18.717829   17.186035   23.403944 H          1 MOL1         0.0832
       6    H4      20.385179   17.054479   22.884715 H          1 MOL1         0.0832
       7    C3      19.980738   18.771967   24.161290 C.3        1 MOL1        -0.1685
       8    H5      21.072709   18.784787   24.272875 H          1 MOL1         0.0832
       9    H6      19.603354   18.386153   25.118036 H          1 MOL1         0.0832
      10    C4      19.463182   20.222407   23.971375 C.3        1 MOL1        -0.1761
      11    H7      18.380346   20.198170   23.796714 H          1 MOL1         0.0832
      12    H8      19.583099   20.758689   24.922380 H          1 MOL1         0.0832
      13    C5      20.145365   21.045177   22.839321 C.3        1 MOL1         0.1218
      14    H9      19.355347   21.546065   22.261349 H          1 MOL1         0.0789
      15    C6      21.027503   20.238636   21.853633 C.3        1 MOL1        -0.1761
      16    H10     21.545116   20.938862   21.185189 H          1 MOL1         0.0832
      17    H11     21.825961   19.728365   22.405609 H          1 MOL1         0.0832
      18    C7      20.271660   19.212615   20.972843 C.3        1 MOL1        -0.1685
      19    H12     19.817167   19.740181   20.123182 H          1 MOL1         0.0832
      20    H13     21.004793   18.518818   20.539447 H          1 MOL1         0.0832
      21    O1      20.972268   22.036436   23.438330 O.3        1 MOL1        -0.5509
      22    H14     21.342712   22.574529   22.707983 H          1 MOL1         0.3779
@<TRIPOS>BOND
    1     1     2    1
    2     1     3    1
    3     1     4    1
    4     4     5    1
    5     4     6    1
    6     4     7    1
    7     7     8    1
    8     7     9    1
    9     7    10    1
   10    10    11    1
   11    10    12    1
   12    10    13    1
   13    13    14    1
   14    13    15    1
   15    15    16    1
   16    15    17    1
   17     1    18    1
   18    15    18    1
   19    18    19    1
   20    18    20    1
   21    13    21    1
   22    21    22    1
@<TRIPOS>SUBSTRUCTURE
       1 MOL1            1 RESIDUE      1      MOL     
@<SCITEGIC>MOL_PROPERTY
VConf Rank
SciTegic.value.IntegerValue
25

@<SCITEGIC>MOL_PROPERTY
Conf_Id
SciTegic.value.IntegerValue
141

@<SCITEGIC>MOL_PROPERTY
Delta U+W
SciTegic.value.DoubleValue
0.000

@<SCITEGIC>MOL_PROPERTY
U+W
SciTegic.value.DoubleValue
6.423

@<SCITEGIC>MOL_PROPERTY
Grad RMS
SciTegic.value.DoubleValue
0.000000

@<SCITEGIC>MOL_PROPERTY
U
SciTegic.value.DoubleValue
8.781

@<SCITEGIC>MOL_PROPERTY
W
SciTegic.value.DoubleValue
-2.358

@<SCITEGIC>MOL_PROPERTY
W(PB)
SciTegic.value.DoubleValue
-4.373

@<SCITEGIC>MOL_PROPERTY
W(SA)
SciTegic.value.DoubleValue
2.015

@<SCITEGIC>MOL_PROPERTY
Valence
SciTegic.value.DoubleValue
13.328

@<SCITEGIC>MOL_PROPERTY
Coulomb
SciTegic.value.DoubleValue
-8.387

@<SCITEGIC>MOL_PROPERTY
VdW
SciTegic.value.DoubleValue
3.840

@<SCITEGIC>MOL_PROPERTY
VdW6
SciTegic.value.DoubleValue
-9.744

@<SCITEGIC>MOL_PROPERTY
VdW12
SciTegic.value.DoubleValue
13.584

@<SCITEGIC>MOL_PROPERTY
Bond
SciTegic.value.DoubleValue
0.436

@<SCITEGIC>MOL_PROPERTY
Angle
SciTegic.value.DoubleValue
3.478

@<SCITEGIC>MOL_PROPERTY
Pdih
SciTegic.value.DoubleValue
9.415

@<SCITEGIC>MOL_PROPERTY
Idih
SciTegic.value.DoubleValue
0.000

@<SCITEGIC>MOL_PROPERTY
Tether
SciTegic.value.DoubleValue
0.000

@<TRIPOS>MOLECULE
guest-5_confgen4.mol2 : confsearch ligand conformer 26
          22          22           1
SMALL
USER_CHARGES
 
@<TRIPOS>ATOM
       1    C1      21.488143   18.729416   22.512461 C.3        1 MOL1        -0.1685
       2    H1      21.046001   17.921897   23.111653 H          1 MOL1         0.0832
       3    H2      22.489707   18.381059   22.225367 H          1 MOL1         0.0832
       4    C2      21.662252   20.014276   23.357728 C.3        1 MOL1        -0.1685
       5    H3      22.439663   19.833800   24.112656 H          1 MOL1         0.0832
       6    H4      22.047925   20.820749   22.719186 H          1 MOL1         0.0832
       7    C3      20.388292   20.502801   24.084846 C.3        1 MOL1        -0.1685
       8    H5      20.623811   21.449875   24.589235 H          1 MOL1         0.0832
       9    H6      20.129689   19.794246   24.883616 H          1 MOL1         0.0832
      10    C4      19.157379   20.722054   23.171631 C.3        1 MOL1        -0.1761
      11    H7      18.408839   21.278062   23.751310 H          1 MOL1         0.0832
      12    H8      19.417800   21.360236   22.317289 H          1 MOL1         0.0832
      13    C5      18.531477   19.395593   22.685449 C.3        1 MOL1         0.1218
      14    H9      18.665109   18.642226   23.475021 H          1 MOL1         0.0789
      15    C6      19.139621   18.840259   21.377373 C.3        1 MOL1        -0.1761
      16    H10     18.863782   17.780106   21.307817 H          1 MOL1         0.0832
      17    H11     18.663928   19.331760   20.518156 H          1 MOL1         0.0832
      18    C7      20.675464   18.966112   21.218023 C.3        1 MOL1        -0.1685
      19    H12     20.998132   18.242658   20.456890 H          1 MOL1         0.0832
      20    H13     20.922481   19.954580   20.807385 H          1 MOL1         0.0832
      21    O1      17.139263   19.596099   22.473892 O.3        1 MOL1        -0.5509
      22    H14     16.760301   19.874645   23.333786 H          1 MOL1         0.3779
@<TRIPOS>BOND
    1     1     2    1
    2     1     3    1
    3     1     4    1
    4     4     5    1
    5     4     6    1
    6     4     7    1
    7     7     8    1
    8     7     9    1
    9     7    10    1
   10    10    11    1
   11    10    12    1
   12    10    13    1
   13    13    14    1
   14    13    15    1
   15    15    16    1
   16    15    17    1
   17     1    18    1
   18    15    18    1
   19    18    19    1
   20    18    20    1
   21    13    21    1
   22    21    22    1
@<TRIPOS>SUBSTRUCTURE
       1 MOL1            1 RESIDUE      1      MOL     
@<SCITEGIC>MOL_PROPERTY
VConf Rank
SciTegic.value.IntegerValue
26

@<SCITEGIC>MOL_PROPERTY
Conf_Id
SciTegic.value.IntegerValue
144

@<SCITEGIC>MOL_PROPERTY
Delta U+W
SciTegic.value.DoubleValue
-3.291

@<SCITEGIC>MOL_PROPERTY
U+W
SciTegic.value.DoubleValue
3.132

@<SCITEGIC>MOL_PROPERTY
Grad RMS
SciTegic.value.DoubleValue
0.000000

@<SCITEGIC>MOL_PROPERTY
U
SciTegic.value.DoubleValue
5.411

@<SCITEGIC>MOL_PROPERTY
W
SciTegic.value.DoubleValue
-2.279

@<SCITEGIC>MOL_PROPERTY
W(PB)
SciTegic.value.DoubleValue
-4.300

@<SCITEGIC>MOL_PROPERTY
W(SA)
SciTegic.value.DoubleValue
2.021

@<SCITEGIC>MOL_PROPERTY
Valence
SciTegic.value.DoubleValue
11.909

@<SCITEGIC>MOL_PROPERTY
Coulomb
SciTegic.value.DoubleValue
-8.733

@<SCITEGIC>MOL_PROPERTY
VdW
SciTegic.value.DoubleValue
2.236

@<SCITEGIC>MOL_PROPERTY
VdW6
SciTegic.value.DoubleValue
-8.936

@<SCITEGIC>MOL_PROPERTY
VdW12
SciTegic.value.DoubleValue
11.172

@<SCITEGIC>MOL_PROPERTY
Bond
SciTegic.value.DoubleValue
0.223

@<SCITEGIC>MOL_PROPERTY
Angle
SciTegic.value.DoubleValue
2.457

@<SCITEGIC>MOL_PROPERTY
Pdih
SciTegic.value.DoubleValue
9.228

@<SCITEGIC>MOL_PROPERTY
Idih
SciTegic.value.DoubleValue
0.000

@<SCITEGIC>MOL_PROPERTY
Tether
SciTegic.value.DoubleValue
0.000

@<TRIPOS>MOLECULE
guest-5_confgen4.mol2 : confsearch ligand conformer 27
          22          22           1
SMALL
USER_CHARGES
 
@<TRIPOS>ATOM
       1    C1      19.189132   19.397816   21.099155 C.3        1 MOL1        -0.1685
       2    H1      18.989770   19.235349   20.031097 H          1 MOL1         0.0832
       3    H2      18.219455   19.637522   21.556264 H          1 MOL1         0.0832
       4    C2      20.168144   20.588270   21.227334 C.3        1 MOL1        -0.1685
       5    H3      21.196440   20.234277   21.072187 H          1 MOL1         0.0832
       6    H4      19.975736   21.296236   20.409556 H          1 MOL1         0.0832
       7    C3      20.082927   21.367389   22.562113 C.3        1 MOL1        -0.1685
       8    H5      19.268918   22.102164   22.495711 H          1 MOL1         0.0832
       9    H6      21.005137   21.953595   22.675740 H          1 MOL1         0.0832
      10    C4      19.864037   20.519548   23.839373 C.3        1 MOL1        -0.1761
      11    H7      20.153032   21.133132   24.703356 H          1 MOL1         0.0832
      12    H8      18.791303   20.321071   23.960800 H          1 MOL1         0.0832
      13    C5      20.638063   19.182668   23.874455 C.3        1 MOL1         0.1218
      14    H9      21.605720   19.303998   23.367121 H          1 MOL1         0.0789
      15    C6      19.850839   18.024840   23.219712 C.3        1 MOL1        -0.1761
      16    H10     20.326597   17.074793   23.497557 H          1 MOL1         0.0832
      17    H11     18.836242   17.989470   23.637358 H          1 MOL1         0.0832
      18    C7      19.762194   18.081113   21.676116 C.3        1 MOL1        -0.1685
      19    H12     20.756897   17.897420   21.247458 H          1 MOL1         0.0832
      20    H13     19.132154   17.247125   21.338030 H          1 MOL1         0.0832
      21    O1      20.872196   18.837484   25.233220 O.3        1 MOL1        -0.5509
      22    H14     19.991143   18.740345   25.649715 H          1 MOL1         0.3779
@<TRIPOS>BOND
    1     1     2    1
    2     1     3    1
    3     1     4    1
    4     4     5    1
    5     4     6    1
    6     4     7    1
    7     7     8    1
    8     7     9    1
    9     7    10    1
   10    10    11    1
   11    10    12    1
   12    10    13    1
   13    13    14    1
   14    13    15    1
   15    15    16    1
   16    15    17    1
   17     1    18    1
   18    15    18    1
   19    18    19    1
   20    18    20    1
   21    13    21    1
   22    21    22    1
@<TRIPOS>SUBSTRUCTURE
       1 MOL1            1 RESIDUE      1      MOL     
@<SCITEGIC>MOL_PROPERTY
VConf Rank
SciTegic.value.IntegerValue
27

@<SCITEGIC>MOL_PROPERTY
Conf_Id
SciTegic.value.IntegerValue
76

@<SCITEGIC>MOL_PROPERTY
Delta U+W
SciTegic.value.DoubleValue
-3.175

@<SCITEGIC>MOL_PROPERTY
U+W
SciTegic.value.DoubleValue
3.248

@<SCITEGIC>MOL_PROPERTY
Grad RMS
SciTegic.value.DoubleValue
0.000000

@<SCITEGIC>MOL_PROPERTY
U
SciTegic.value.DoubleValue
5.336

@<SCITEGIC>MOL_PROPERTY
W
SciTegic.value.DoubleValue
-2.088

@<SCITEGIC>MOL_PROPERTY
W(PB)
SciTegic.value.DoubleValue
-4.098

@<SCITEGIC>MOL_PROPERTY
W(SA)
SciTegic.value.DoubleValue
2.010

@<SCITEGIC>MOL_PROPERTY
Valence
SciTegic.value.DoubleValue
12.390

@<SCITEGIC>MOL_PROPERTY
Coulomb
SciTegic.value.DoubleValue
-9.270

@<SCITEGIC>MOL_PROPERTY
VdW
SciTegic.value.DoubleValue
2.216

@<SCITEGIC>MOL_PROPERTY
VdW6
SciTegic.value.DoubleValue
-8.967

@<SCITEGIC>MOL_PROPERTY
VdW12
SciTegic.value.DoubleValue
11.183

@<SCITEGIC>MOL_PROPERTY
Bond
SciTegic.value.DoubleValue
0.218

@<SCITEGIC>MOL_PROPERTY
Angle
SciTegic.value.DoubleValue
2.426

@<SCITEGIC>MOL_PROPERTY
Pdih
SciTegic.value.DoubleValue
9.745

@<SCITEGIC>MOL_PROPERTY
Idih
SciTegic.value.DoubleValue
0.000

@<SCITEGIC>MOL_PROPERTY
Tether
SciTegic.value.DoubleValue
0.000

@<TRIPOS>MOLECULE
guest-5_confgen4.mol2 : confsearch ligand conformer 28
          22          22           1
SMALL
USER_CHARGES
 
@<TRIPOS>ATOM
       1    C1      19.996233   21.053223   23.816981 C.3        1 MOL1        -0.1685
       2    H1      19.868437   21.056302   24.908054 H          1 MOL1         0.0832
       3    H2      20.155424   22.102301   23.532538 H          1 MOL1         0.0832
       4    C2      18.678629   20.554492   23.176776 C.3        1 MOL1        -0.1685
       5    H3      18.237399   19.771741   23.808517 H          1 MOL1         0.0832
       6    H4      17.958779   21.384179   23.191628 H          1 MOL1         0.0832
       7    C3      18.812275   20.031457   21.727599 C.3        1 MOL1        -0.1685
       8    H5      19.536121   20.630316   21.158171 H          1 MOL1         0.0832
       9    H6      17.844422   20.165532   21.226025 H          1 MOL1         0.0832
      10    C4      19.171998   18.525255   21.664080 C.3        1 MOL1        -0.1761
      11    H7      18.476566   17.961180   22.298673 H          1 MOL1         0.0832
      12    H8      18.995690   18.165876   20.641741 H          1 MOL1         0.0832
      13    C5      20.619332   18.151496   22.057305 C.3        1 MOL1         0.1218
      14    H9      20.653564   17.055217   22.135400 H          1 MOL1         0.0789
      15    C6      21.101197   18.720430   23.415468 C.3        1 MOL1        -0.1761
      16    H10     20.423576   18.396536   24.215968 H          1 MOL1         0.0832
      17    H11     22.070272   18.257937   23.643022 H          1 MOL1         0.0832
      18    C7      21.276346   20.260744   23.459893 C.3        1 MOL1        -0.1685
      19    H12     22.044549   20.507861   24.205024 H          1 MOL1         0.0832
      20    H13     21.673338   20.622564   22.502331 H          1 MOL1         0.0832
      21    O1      21.506569   18.549929   21.017072 O.3        1 MOL1        -0.5509
      22    H14     22.411506   18.343241   21.327962 H          1 MOL1         0.3779
@<TRIPOS>BOND
    1     1     2    1
    2     1     3    1
    3     1     4    1
    4     4     5    1
    5     4     6    1
    6     4     7    1
    7     7     8    1
    8     7     9    1
    9     7    10    1
   10    10    11    1
   11    10    12    1
   12    10    13    1
   13    13    14    1
   14    13    15    1
   15    15    16    1
   16    15    17    1
   17     1    18    1
   18    15    18    1
   19    18    19    1
   20    18    20    1
   21    13    21    1
   22    21    22    1
@<TRIPOS>SUBSTRUCTURE
       1 MOL1            1 RESIDUE      1      MOL     
@<SCITEGIC>MOL_PROPERTY
VConf Rank
SciTegic.value.IntegerValue
28

@<SCITEGIC>MOL_PROPERTY
Conf_Id
SciTegic.value.IntegerValue
95

@<SCITEGIC>MOL_PROPERTY
Delta U+W
SciTegic.value.DoubleValue
-2.289

@<SCITEGIC>MOL_PROPERTY
U+W
SciTegic.value.DoubleValue
4.134

@<SCITEGIC>MOL_PROPERTY
Grad RMS
SciTegic.value.DoubleValue
0.000000

@<SCITEGIC>MOL_PROPERTY
U
SciTegic.value.DoubleValue
6.373

@<SCITEGIC>MOL_PROPERTY
W
SciTegic.value.DoubleValue
-2.240

@<SCITEGIC>MOL_PROPERTY
W(PB)
SciTegic.value.DoubleValue
-4.254

@<SCITEGIC>MOL_PROPERTY
W(SA)
SciTegic.value.DoubleValue
2.015

@<SCITEGIC>MOL_PROPERTY
Valence
SciTegic.value.DoubleValue
12.093

@<SCITEGIC>MOL_PROPERTY
Coulomb
SciTegic.value.DoubleValue
-8.058

@<SCITEGIC>MOL_PROPERTY
VdW
SciTegic.value.DoubleValue
2.339

@<SCITEGIC>MOL_PROPERTY
VdW6
SciTegic.value.DoubleValue
-9.683

@<SCITEGIC>MOL_PROPERTY
VdW12
SciTegic.value.DoubleValue
12.022

@<SCITEGIC>MOL_PROPERTY
Bond
SciTegic.value.DoubleValue
0.268

@<SCITEGIC>MOL_PROPERTY
Angle
SciTegic.value.DoubleValue
3.005

@<SCITEGIC>MOL_PROPERTY
Pdih
SciTegic.value.DoubleValue
8.820

@<SCITEGIC>MOL_PROPERTY
Idih
SciTegic.value.DoubleValue
0.000

@<SCITEGIC>MOL_PROPERTY
Tether
SciTegic.value.DoubleValue
0.000

@<TRIPOS>MOLECULE
guest-5_confgen4.mol2 : confsearch ligand conformer 29
          22          22           1
SMALL
USER_CHARGES
 
@<TRIPOS>ATOM
       1    C1      18.521341   19.920201   21.590086 C.3        1 MOL1        -0.1685
       2    H1      17.959374   20.852694   21.443787 H          1 MOL1         0.0832
       3    H2      18.051638   19.181950   20.925891 H          1 MOL1         0.0832
       4    C2      18.332028   19.466145   23.057165 C.3        1 MOL1        -0.1685
       5    H3      18.294518   20.347851   23.711128 H          1 MOL1         0.0832
       6    H4      17.342821   18.995931   23.141829 H          1 MOL1         0.0832
       7    C3      19.402680   18.481236   23.581737 C.3        1 MOL1        -0.1685
       8    H5      19.701807   17.771698   22.798221 H          1 MOL1         0.0832
       9    H6      18.949112   17.879604   24.380950 H          1 MOL1         0.0832
      10    C4      20.637969   19.202995   24.177082 C.3        1 MOL1        -0.1761
      11    H7      20.299130   19.963470   24.892457 H          1 MOL1         0.0832
      12    H8      21.213852   18.481227   24.770708 H          1 MOL1         0.0832
      13    C5      21.593170   19.870397   23.161257 C.3        1 MOL1         0.1218
      14    H9      22.303199   20.475610   23.743216 H          1 MOL1         0.0789
      15    C6      20.912512   20.821183   22.144868 C.3        1 MOL1        -0.1761
      16    H10     20.367328   21.610793   22.677576 H          1 MOL1         0.0832
      17    H11     21.712096   21.330056   21.591205 H          1 MOL1         0.0832
      18    C7      19.979696   20.129302   21.116959 C.3        1 MOL1        -0.1685
      19    H12     19.953617   20.734899   20.201105 H          1 MOL1         0.0832
      20    H13     20.408155   19.164712   20.814287 H          1 MOL1         0.0832
      21    O1      22.328754   18.863523   22.472770 O.3        1 MOL1        -0.5509
      22    H14     22.721537   18.284339   23.157207 H          1 MOL1         0.3779
@<TRIPOS>BOND
    1     1     2    1
    2     1     3    1
    3     1     4    1
    4     4     5    1
    5     4     6    1
    6     4     7    1
    7     7     8    1
    8     7     9    1
    9     7    10    1
   10    10    11    1
   11    10    12    1
   12    10    13    1
   13    13    14    1
   14    13    15    1
   15    15    16    1
   16    15    17    1
   17     1    18    1
   18    15    18    1
   19    18    19    1
   20    18    20    1
   21    13    21    1
   22    21    22    1
@<TRIPOS>SUBSTRUCTURE
       1 MOL1            1 RESIDUE      1      MOL     
@<SCITEGIC>MOL_PROPERTY
VConf Rank
SciTegic.value.IntegerValue
29

@<SCITEGIC>MOL_PROPERTY
Conf_Id
SciTegic.value.IntegerValue
41

@<SCITEGIC>MOL_PROPERTY
Delta U+W
SciTegic.value.DoubleValue
-2.114

@<SCITEGIC>MOL_PROPERTY
U+W
SciTegic.value.DoubleValue
4.310

@<SCITEGIC>MOL_PROPERTY
Grad RMS
SciTegic.value.DoubleValue
0.000000

@<SCITEGIC>MOL_PROPERTY
U
SciTegic.value.DoubleValue
6.598

@<SCITEGIC>MOL_PROPERTY
W
SciTegic.value.DoubleValue
-2.289

@<SCITEGIC>MOL_PROPERTY
W(PB)
SciTegic.value.DoubleValue
-4.294

@<SCITEGIC>MOL_PROPERTY
W(SA)
SciTegic.value.DoubleValue
2.005

@<SCITEGIC>MOL_PROPERTY
Valence
SciTegic.value.DoubleValue
12.082

@<SCITEGIC>MOL_PROPERTY
Coulomb
SciTegic.value.DoubleValue
-7.801

@<SCITEGIC>MOL_PROPERTY
VdW
SciTegic.value.DoubleValue
2.317

@<SCITEGIC>MOL_PROPERTY
VdW6
SciTegic.value.DoubleValue
-9.658

@<SCITEGIC>MOL_PROPERTY
VdW12
SciTegic.value.DoubleValue
11.975

@<SCITEGIC>MOL_PROPERTY
Bond
SciTegic.value.DoubleValue
0.267

@<SCITEGIC>MOL_PROPERTY
Angle
SciTegic.value.DoubleValue
3.051

@<SCITEGIC>MOL_PROPERTY
Pdih
SciTegic.value.DoubleValue
8.764

@<SCITEGIC>MOL_PROPERTY
Idih
SciTegic.value.DoubleValue
0.000

@<SCITEGIC>MOL_PROPERTY
Tether
SciTegic.value.DoubleValue
0.000

@<TRIPOS>MOLECULE
guest-5_confgen4.mol2 : confsearch ligand conformer 30
          22          22           1
SMALL
USER_CHARGES
 
@<TRIPOS>ATOM
       1    C1      20.869665   19.977206   24.118292 C.3        1 MOL1        -0.1685
       2    H1      21.334766   20.509043   24.959352 H          1 MOL1         0.0832
       3    H2      20.685440   18.951541   24.466502 H          1 MOL1         0.0832
       4    C2      21.871213   19.983263   22.941750 C.3        1 MOL1        -0.1685
       5    H3      21.993658   21.009107   22.568608 H          1 MOL1         0.0832
       6    H4      22.857364   19.680366   23.319004 H          1 MOL1         0.0832
       7    C3      21.494335   19.050325   21.770081 C.3        1 MOL1        -0.1685
       8    H5      21.579406   18.004457   22.093830 H          1 MOL1         0.0832
       9    H6      22.248243   19.176146   20.981462 H          1 MOL1         0.0832
      10    C4      20.092921   19.302157   21.150561 C.3        1 MOL1        -0.1761
      11    H7      19.978149   20.363796   20.897566 H          1 MOL1         0.0832
      12    H8      20.050608   18.763663   20.195147 H          1 MOL1         0.0832
      13    C5      18.882115   18.828721   21.995452 C.3        1 MOL1         0.1218
      14    H9      18.021703   18.777883   21.312529 H          1 MOL1         0.0789
      15    C6      18.457403   19.767264   23.154718 C.3        1 MOL1        -0.1761
      16    H10     17.647895   20.412265   22.789023 H          1 MOL1         0.0832
      17    H11     18.007052   19.165783   23.955265 H          1 MOL1         0.0832
      18    C7      19.540468   20.684922   23.774212 C.3        1 MOL1        -0.1685
      19    H12     19.734180   21.536002   23.107464 H          1 MOL1         0.0832
      20    H13     19.125929   21.119920   24.693784 H          1 MOL1         0.0832
      21    O1      19.109683   17.515610   22.500300 O.3        1 MOL1        -0.5509
      22    H14     18.301690   17.256191   22.987905 H          1 MOL1         0.3779
@<TRIPOS>BOND
    1     1     2    1
    2     1     3    1
    3     1     4    1
    4     4     5    1
    5     4     6    1
    6     4     7    1
    7     7     8    1
    8     7     9    1
    9     7    10    1
   10    10    11    1
   11    10    12    1
   12    10    13    1
   13    13    14    1
   14    13    15    1
   15    15    16    1
   16    15    17    1
   17     1    18    1
   18    15    18    1
   19    18    19    1
   20    18    20    1
   21    13    21    1
   22    21    22    1
@<TRIPOS>SUBSTRUCTURE
       1 MOL1            1 RESIDUE      1      MOL     
@<SCITEGIC>MOL_PROPERTY
VConf Rank
SciTegic.value.IntegerValue
30

@<SCITEGIC>MOL_PROPERTY
Conf_Id
SciTegic.value.IntegerValue
104

@<SCITEGIC>MOL_PROPERTY
Delta U+W
SciTegic.value.DoubleValue
-1.172

@<SCITEGIC>MOL_PROPERTY
U+W
SciTegic.value.DoubleValue
5.252

@<SCITEGIC>MOL_PROPERTY
Grad RMS
SciTegic.value.DoubleValue
0.000000

@<SCITEGIC>MOL_PROPERTY
U
SciTegic.value.DoubleValue
7.482

@<SCITEGIC>MOL_PROPERTY
W
SciTegic.value.DoubleValue
-2.230

@<SCITEGIC>MOL_PROPERTY
W(PB)
SciTegic.value.DoubleValue
-4.220

@<SCITEGIC>MOL_PROPERTY
W(SA)
SciTegic.value.DoubleValue
1.990

@<SCITEGIC>MOL_PROPERTY
Valence
SciTegic.value.DoubleValue
12.309

@<SCITEGIC>MOL_PROPERTY
Coulomb
SciTegic.value.DoubleValue
-7.084

@<SCITEGIC>MOL_PROPERTY
VdW
SciTegic.value.DoubleValue
2.258

@<SCITEGIC>MOL_PROPERTY
VdW6
SciTegic.value.DoubleValue
-9.770

@<SCITEGIC>MOL_PROPERTY
VdW12
SciTegic.value.DoubleValue
12.028

@<SCITEGIC>MOL_PROPERTY
Bond
SciTegic.value.DoubleValue
0.284

@<SCITEGIC>MOL_PROPERTY
Angle
SciTegic.value.DoubleValue
3.491

@<SCITEGIC>MOL_PROPERTY
Pdih
SciTegic.value.DoubleValue
8.535

@<SCITEGIC>MOL_PROPERTY
Idih
SciTegic.value.DoubleValue
0.000

@<SCITEGIC>MOL_PROPERTY
Tether
SciTegic.value.DoubleValue
0.000

@<TRIPOS>MOLECULE
guest-5_confgen4.mol2 : confsearch ligand conformer 31
          22          22           1
SMALL
USER_CHARGES
 
@<TRIPOS>ATOM
       1    C1      19.886093   17.963079   22.481313 C.3        1 MOL1        -0.1685
       2    H1      18.995767   17.922146   23.123285 H          1 MOL1         0.0832
       3    H2      20.081329   16.928014   22.169124 H          1 MOL1         0.0832
       4    C2      21.116909   18.457595   23.275058 C.3        1 MOL1        -0.1685
       5    H3      21.513498   17.619440   23.864517 H          1 MOL1         0.0832
       6    H4      21.921134   18.717406   22.574302 H          1 MOL1         0.0832
       7    C3      20.859829   19.637534   24.246308 C.3        1 MOL1        -0.1685
       8    H5      21.804618   20.178775   24.393771 H          1 MOL1         0.0832
       9    H6      20.603042   19.226348   25.232166 H          1 MOL1         0.0832
      10    C4      19.748164   20.649693   23.857798 C.3        1 MOL1        -0.1761
      11    H7      18.768816   20.218531   24.102607 H          1 MOL1         0.0832
      12    H8      19.846774   21.527780   24.509135 H          1 MOL1         0.0832
      13    C5      19.722476   21.139475   22.391703 C.3        1 MOL1         0.1218
      14    H9      19.179431   22.095367   22.375768 H          1 MOL1         0.0789
      15    C6      18.961902   20.177882   21.450886 C.3        1 MOL1        -0.1761
      16    H10     17.947749   20.030156   21.844245 H          1 MOL1         0.0832
      17    H11     18.833070   20.677861   20.482037 H          1 MOL1         0.0832
      18    C7      19.611375   18.793497   21.205008 C.3        1 MOL1        -0.1685
      19    H12     18.938034   18.216587   20.556550 H          1 MOL1         0.0832
      20    H13     20.540611   18.914545   20.631993 H          1 MOL1         0.0832
      21    O1      21.041861   21.350390   21.913262 O.3        1 MOL1        -0.5509
      22    H14     21.481228   20.485421   22.036024 H          1 MOL1         0.3779
@<TRIPOS>BOND
    1     1     2    1
    2     1     3    1
    3     1     4    1
    4     4     5    1
    5     4     6    1
    6     4     7    1
    7     7     8    1
    8     7     9    1
    9     7    10    1
   10    10    11    1
   11    10    12    1
   12    10    13    1
   13    13    14    1
   14    13    15    1
   15    15    16    1
   16    15    17    1
   17     1    18    1
   18    15    18    1
   19    18    19    1
   20    18    20    1
   21    13    21    1
   22    21    22    1
@<TRIPOS>SUBSTRUCTURE
       1 MOL1            1 RESIDUE      1      MOL     
@<SCITEGIC>MOL_PROPERTY
VConf Rank
SciTegic.value.IntegerValue
31

@<SCITEGIC>MOL_PROPERTY
Conf_Id
SciTegic.value.IntegerValue
99

@<SCITEGIC>MOL_PROPERTY
Delta U+W
SciTegic.value.DoubleValue
-3.852

@<SCITEGIC>MOL_PROPERTY
U+W
SciTegic.value.DoubleValue
2.572

@<SCITEGIC>MOL_PROPERTY
Grad RMS
SciTegic.value.DoubleValue
0.000000

@<SCITEGIC>MOL_PROPERTY
U
SciTegic.value.DoubleValue
3.922

@<SCITEGIC>MOL_PROPERTY
W
SciTegic.value.DoubleValue
-1.350

@<SCITEGIC>MOL_PROPERTY
W(PB)
SciTegic.value.DoubleValue
-3.345

@<SCITEGIC>MOL_PROPERTY
W(SA)
SciTegic.value.DoubleValue
1.995

@<SCITEGIC>MOL_PROPERTY
Valence
SciTegic.value.DoubleValue
12.571

@<SCITEGIC>MOL_PROPERTY
Coulomb
SciTegic.value.DoubleValue
-10.581

@<SCITEGIC>MOL_PROPERTY
VdW
SciTegic.value.DoubleValue
1.932

@<SCITEGIC>MOL_PROPERTY
VdW6
SciTegic.value.DoubleValue
-10.483

@<SCITEGIC>MOL_PROPERTY
VdW12
SciTegic.value.DoubleValue
12.415

@<SCITEGIC>MOL_PROPERTY
Bond
SciTegic.value.DoubleValue
0.268

@<SCITEGIC>MOL_PROPERTY
Angle
SciTegic.value.DoubleValue
3.728

@<SCITEGIC>MOL_PROPERTY
Pdih
SciTegic.value.DoubleValue
8.575

@<SCITEGIC>MOL_PROPERTY
Idih
SciTegic.value.DoubleValue
0.000

@<SCITEGIC>MOL_PROPERTY
Tether
SciTegic.value.DoubleValue
0.000

@<TRIPOS>MOLECULE
guest-5_confgen4.mol2 : confsearch ligand conformer 32
          22          22           1
SMALL
USER_CHARGES
 
@<TRIPOS>ATOM
       1    C1      18.575298   19.902329   22.017338 C.3        1 MOL1        -0.1685
       2    H1      17.793481   19.728777   21.265052 H          1 MOL1         0.0832
       3    H2      18.154224   20.657821   22.694083 H          1 MOL1         0.0832
       4    C2      19.824081   20.474785   21.284749 C.3        1 MOL1        -0.1685
       5    H3      19.582718   20.549163   20.215402 H          1 MOL1         0.0832
       6    H4      20.010143   21.508498   21.605485 H          1 MOL1         0.0832
       7    C3      21.128073   19.647387   21.418043 C.3        1 MOL1        -0.1685
       8    H5      21.865556   20.046345   20.708340 H          1 MOL1         0.0832
       9    H6      20.949935   18.618616   21.081195 H          1 MOL1         0.0832
      10    C4      21.784112   19.631944   22.826661 C.3        1 MOL1        -0.1761
      11    H7      22.425692   18.744111   22.896450 H          1 MOL1         0.0832
      12    H8      22.466306   20.489322   22.900894 H          1 MOL1         0.0832
      13    C5      20.856767   19.665097   24.066455 C.3        1 MOL1         0.1218
      14    H9      21.480339   19.420644   24.938335 H          1 MOL1         0.0789
      15    C6      19.674294   18.665148   24.064547 C.3        1 MOL1        -0.1761
      16    H10     20.066466   17.663079   24.280879 H          1 MOL1         0.0832
      17    H11     19.028968   18.914413   24.917435 H          1 MOL1         0.0832
      18    C7      18.790069   18.575712   22.789812 C.3        1 MOL1        -0.1685
      19    H12     19.193799   17.813563   22.111801 H          1 MOL1         0.0832
      20    H13     17.807531   18.186176   23.089154 H          1 MOL1         0.0832
      21    O1      20.365954   20.982424   24.258799 O.3        1 MOL1        -0.5509
      22    H14     19.822064   21.150546   23.463279 H          1 MOL1         0.3779
@<TRIPOS>BOND
    1     1     2    1
    2     1     3    1
    3     1     4    1
    4     4     5    1
    5     4     6    1
    6     4     7    1
    7     7     8    1
    8     7     9    1
    9     7    10    1
   10    10    11    1
   11    10    12    1
   12    10    13    1
   13    13    14    1
   14    13    15    1
   15    15    16    1
   16    15    17    1
   17     1    18    1
   18    15    18    1
   19    18    19    1
   20    18    20    1
   21    13    21    1
   22    21    22    1
@<TRIPOS>SUBSTRUCTURE
       1 MOL1            1 RESIDUE      1      MOL     
@<SCITEGIC>MOL_PROPERTY
VConf Rank
SciTegic.value.IntegerValue
32

@<SCITEGIC>MOL_PROPERTY
Conf_Id
SciTegic.value.IntegerValue
98

@<SCITEGIC>MOL_PROPERTY
Delta U+W
SciTegic.value.DoubleValue
0.930

@<SCITEGIC>MOL_PROPERTY
U+W
SciTegic.value.DoubleValue
7.353

@<SCITEGIC>MOL_PROPERTY
Grad RMS
SciTegic.value.DoubleValue
0.000000

@<SCITEGIC>MOL_PROPERTY
U
SciTegic.value.DoubleValue
8.455

@<SCITEGIC>MOL_PROPERTY
W
SciTegic.value.DoubleValue
-1.102

@<SCITEGIC>MOL_PROPERTY
W(PB)
SciTegic.value.DoubleValue
-3.101

@<SCITEGIC>MOL_PROPERTY
W(SA)
SciTegic.value.DoubleValue
2.000

@<SCITEGIC>MOL_PROPERTY
Valence
SciTegic.value.DoubleValue
15.601

@<SCITEGIC>MOL_PROPERTY
Coulomb
SciTegic.value.DoubleValue
-10.573

@<SCITEGIC>MOL_PROPERTY
VdW
SciTegic.value.DoubleValue
3.427

@<SCITEGIC>MOL_PROPERTY
VdW6
SciTegic.value.DoubleValue
-11.360

@<SCITEGIC>MOL_PROPERTY
VdW12
SciTegic.value.DoubleValue
14.787

@<SCITEGIC>MOL_PROPERTY
Bond
SciTegic.value.DoubleValue
0.471

@<SCITEGIC>MOL_PROPERTY
Angle
SciTegic.value.DoubleValue
5.445

@<SCITEGIC>MOL_PROPERTY
Pdih
SciTegic.value.DoubleValue
9.685

@<SCITEGIC>MOL_PROPERTY
Idih
SciTegic.value.DoubleValue
0.000

@<SCITEGIC>MOL_PROPERTY
Tether
SciTegic.value.DoubleValue
0.000

@<TRIPOS>MOLECULE
guest-5_confgen4.mol2 : confsearch ligand conformer 33
          22          22           1
SMALL
USER_CHARGES
 
@<TRIPOS>ATOM
       1    C1      18.786990   18.579629   21.924368 C.3        1 MOL1        -0.1685
       2    H1      18.685519   18.065215   22.888662 H          1 MOL1         0.0832
       3    H2      18.012652   18.137742   21.282613 H          1 MOL1         0.0832
       4    C2      20.174776   18.268822   21.308245 C.3        1 MOL1        -0.1685
       5    H3      20.245228   17.179481   21.184764 H          1 MOL1         0.0832
       6    H4      20.228854   18.687220   20.294025 H          1 MOL1         0.0832
       7    C3      21.409714   18.743859   22.123053 C.3        1 MOL1        -0.1685
       8    H5      21.835079   19.648187   21.668883 H          1 MOL1         0.0832
       9    H6      22.196211   17.982955   22.027762 H          1 MOL1         0.0832
      10    C4      21.144101   18.998068   23.630547 C.3        1 MOL1        -0.1761
      11    H7      20.660603   18.114192   24.064850 H          1 MOL1         0.0832
      12    H8      22.112376   19.070231   24.143990 H          1 MOL1         0.0832
      13    C5      20.298980   20.261119   23.968691 C.3        1 MOL1         0.1218
      14    H9      19.539560   19.972253   24.709572 H          1 MOL1         0.0789
      15    C6      19.577104   20.932575   22.773576 C.3        1 MOL1        -0.1761
      16    H10     19.121387   21.870993   23.115263 H          1 MOL1         0.0832
      17    H11     20.313714   21.231784   22.018282 H          1 MOL1         0.0832
      18    C7      18.468134   20.082430   22.104812 C.3        1 MOL1        -0.1685
      19    H12     17.548095   20.167463   22.699045 H          1 MOL1         0.0832
      20    H13     18.235745   20.521678   21.125155 H          1 MOL1         0.0832
      21    O1      21.157814   21.235580   24.550076 O.3        1 MOL1        -0.5509
      22    H14     20.592618   21.994326   24.805100 H          1 MOL1         0.3779
@<TRIPOS>BOND
    1     1     2    1
    2     1     3    1
    3     1     4    1
    4     4     5    1
    5     4     6    1
    6     4     7    1
    7     7     8    1
    8     7     9    1
    9     7    10    1
   10    10    11    1
   11    10    12    1
   12    10    13    1
   13    13    14    1
   14    13    15    1
   15    15    16    1
   16    15    17    1
   17     1    18    1
   18    15    18    1
   19    18    19    1
   20    18    20    1
   21    13    21    1
   22    21    22    1
@<TRIPOS>SUBSTRUCTURE
       1 MOL1            1 RESIDUE      1      MOL     
@<SCITEGIC>MOL_PROPERTY
VConf Rank
SciTegic.value.IntegerValue
33

@<SCITEGIC>MOL_PROPERTY
Conf_Id
SciTegic.value.IntegerValue
141

@<SCITEGIC>MOL_PROPERTY
Delta U+W
SciTegic.value.DoubleValue
0.000

@<SCITEGIC>MOL_PROPERTY
U+W
SciTegic.value.DoubleValue
6.423

@<SCITEGIC>MOL_PROPERTY
Grad RMS
SciTegic.value.DoubleValue
0.000000

@<SCITEGIC>MOL_PROPERTY
U
SciTegic.value.DoubleValue
8.781

@<SCITEGIC>MOL_PROPERTY
W
SciTegic.value.DoubleValue
-2.358

@<SCITEGIC>MOL_PROPERTY
W(PB)
SciTegic.value.DoubleValue
-4.373

@<SCITEGIC>MOL_PROPERTY
W(SA)
SciTegic.value.DoubleValue
2.015

@<SCITEGIC>MOL_PROPERTY
Valence
SciTegic.value.DoubleValue
13.328

@<SCITEGIC>MOL_PROPERTY
Coulomb
SciTegic.value.DoubleValue
-8.387

@<SCITEGIC>MOL_PROPERTY
VdW
SciTegic.value.DoubleValue
3.840

@<SCITEGIC>MOL_PROPERTY
VdW6
SciTegic.value.DoubleValue
-9.744

@<SCITEGIC>MOL_PROPERTY
VdW12
SciTegic.value.DoubleValue
13.584

@<SCITEGIC>MOL_PROPERTY
Bond
SciTegic.value.DoubleValue
0.436

@<SCITEGIC>MOL_PROPERTY
Angle
SciTegic.value.DoubleValue
3.478

@<SCITEGIC>MOL_PROPERTY
Pdih
SciTegic.value.DoubleValue
9.415

@<SCITEGIC>MOL_PROPERTY
Idih
SciTegic.value.DoubleValue
0.000

@<SCITEGIC>MOL_PROPERTY
Tether
SciTegic.value.DoubleValue
0.000

@<TRIPOS>MOLECULE
guest-5_confgen4.mol2 : confsearch ligand conformer 34
          22          22           1
SMALL
USER_CHARGES
 
@<TRIPOS>ATOM
       1    C1      19.585544   21.240370   23.151947 C.3        1 MOL1        -0.1685
       2    H1      19.913045   21.594180   22.164947 H          1 MOL1         0.0832
       3    H2      19.210504   22.125989   23.682917 H          1 MOL1         0.0832
       4    C2      20.778254   20.677325   23.961933 C.3        1 MOL1        -0.1685
       5    H3      21.446780   21.508714   24.224080 H          1 MOL1         0.0832
       6    H4      20.412712   20.275875   24.916970 H          1 MOL1         0.0832
       7    C3      21.614170   19.595980   23.239251 C.3        1 MOL1        -0.1685
       8    H5      22.380505   19.232298   23.937314 H          1 MOL1         0.0832
       9    H6      22.162383   20.055398   22.405369 H          1 MOL1         0.0832
      10    C4      20.804762   18.383264   22.718329 C.3        1 MOL1        -0.1761
      11    H7      21.522105   17.599021   22.442893 H          1 MOL1         0.0832
      12    H8      20.182414   17.960812   23.517837 H          1 MOL1         0.0832
      13    C5      19.940522   18.728365   21.484789 C.3        1 MOL1         0.1218
      14    H9      20.467842   19.494628   20.898599 H          1 MOL1         0.0789
      15    C6      18.528134   19.260146   21.818956 C.3        1 MOL1        -0.1761
      16    H10     18.142458   19.762075   20.922200 H          1 MOL1         0.0832
      17    H11     17.854572   18.412293   22.002175 H          1 MOL1         0.0832
      18    C7      18.419180   20.233362   23.019383 C.3        1 MOL1        -0.1685
      19    H12     17.477018   20.789649   22.920889 H          1 MOL1         0.0832
      20    H13     18.325204   19.658748   23.950885 H          1 MOL1         0.0832
      21    O1      19.794197   17.560334   20.686347 O.3        1 MOL1        -0.5509
      22    H14     20.696752   17.283683   20.422761 H          1 MOL1         0.3779
@<TRIPOS>BOND
    1     1     2    1
    2     1     3    1
    3     1     4    1
    4     4     5    1
    5     4     6    1
    6     4     7    1
    7     7     8    1
    8     7     9    1
    9     7    10    1
   10    10    11    1
   11    10    12    1
   12    10    13    1
   13    13    14    1
   14    13    15    1
   15    15    16    1
   16    15    17    1
   17     1    18    1
   18    15    18    1
   19    18    19    1
   20    18    20    1
   21    13    21    1
   22    21    22    1
@<TRIPOS>SUBSTRUCTURE
       1 MOL1            1 RESIDUE      1      MOL     
@<SCITEGIC>MOL_PROPERTY
VConf Rank
SciTegic.value.IntegerValue
34

@<SCITEGIC>MOL_PROPERTY
Conf_Id
SciTegic.value.IntegerValue
144

@<SCITEGIC>MOL_PROPERTY
Delta U+W
SciTegic.value.DoubleValue
-3.291

@<SCITEGIC>MOL_PROPERTY
U+W
SciTegic.value.DoubleValue
3.132

@<SCITEGIC>MOL_PROPERTY
Grad RMS
SciTegic.value.DoubleValue
0.000000

@<SCITEGIC>MOL_PROPERTY
U
SciTegic.value.DoubleValue
5.411

@<SCITEGIC>MOL_PROPERTY
W
SciTegic.value.DoubleValue
-2.279

@<SCITEGIC>MOL_PROPERTY
W(PB)
SciTegic.value.DoubleValue
-4.300

@<SCITEGIC>MOL_PROPERTY
W(SA)
SciTegic.value.DoubleValue
2.021

@<SCITEGIC>MOL_PROPERTY
Valence
SciTegic.value.DoubleValue
11.909

@<SCITEGIC>MOL_PROPERTY
Coulomb
SciTegic.value.DoubleValue
-8.733

@<SCITEGIC>MOL_PROPERTY
VdW
SciTegic.value.DoubleValue
2.236

@<SCITEGIC>MOL_PROPERTY
VdW6
SciTegic.value.DoubleValue
-8.936

@<SCITEGIC>MOL_PROPERTY
VdW12
SciTegic.value.DoubleValue
11.172

@<SCITEGIC>MOL_PROPERTY
Bond
SciTegic.value.DoubleValue
0.223

@<SCITEGIC>MOL_PROPERTY
Angle
SciTegic.value.DoubleValue
2.457

@<SCITEGIC>MOL_PROPERTY
Pdih
SciTegic.value.DoubleValue
9.228

@<SCITEGIC>MOL_PROPERTY
Idih
SciTegic.value.DoubleValue
0.000

@<SCITEGIC>MOL_PROPERTY
Tether
SciTegic.value.DoubleValue
0.000

@<TRIPOS>MOLECULE
guest-5_confgen4.mol2 : confsearch ligand conformer 35
          22          22           1
SMALL
USER_CHARGES
 
@<TRIPOS>ATOM
       1    C1      20.152133   18.815202   21.099730 C.3        1 MOL1        -0.1685
       2    H1      20.147195   18.591890   20.024091 H          1 MOL1         0.0832
       3    H2      20.669074   17.974588   21.582246 H          1 MOL1         0.0832
       4    C2      18.683514   18.905729   21.576216 C.3        1 MOL1        -0.1685
       5    H3      18.287893   19.906040   21.353425 H          1 MOL1         0.0832
       6    H4      18.073829   18.210881   20.982526 H          1 MOL1         0.0832
       7    C3      18.457545   18.579228   23.072297 C.3        1 MOL1        -0.1685
       8    H5      18.382377   17.489870   23.192978 H          1 MOL1         0.0832
       9    H6      17.477646   18.980005   23.365884 H          1 MOL1         0.0832
      10    C4      19.531430   19.100574   24.058760 C.3        1 MOL1        -0.1761
      11    H7      19.092465   19.097154   25.065621 H          1 MOL1         0.0832
      12    H8      20.364547   18.386778   24.094895 H          1 MOL1         0.0832
      13    C5      20.079514   20.509699   23.740068 C.3        1 MOL1         0.1218
      14    H9      19.278737   21.127550   23.309388 H          1 MOL1         0.0789
      15    C6      21.283381   20.472126   22.771425 C.3        1 MOL1        -0.1761
      16    H10     21.777302   21.452920   22.786104 H          1 MOL1         0.0832
      17    H11     22.026760   19.752687   23.138685 H          1 MOL1         0.0832
      18    C7      20.934172   20.135187   21.302330 C.3        1 MOL1        -0.1685
      19    H12     20.366204   20.966790   20.863268 H          1 MOL1         0.0832
      20    H13     21.870958   20.078423   20.731369 H          1 MOL1         0.0832
      21    O1      20.515499   21.104809   24.954964 O.3        1 MOL1        -0.5509
      22    H14     21.223899   20.527497   25.307157 H          1 MOL1         0.3779
@<TRIPOS>BOND
    1     1     2    1
    2     1     3    1
    3     1     4    1
    4     4     5    1
    5     4     6    1
    6     4     7    1
    7     7     8    1
    8     7     9    1
    9     7    10    1
   10    10    11    1
   11    10    12    1
   12    10    13    1
   13    13    14    1
   14    13    15    1
   15    15    16    1
   16    15    17    1
   17     1    18    1
   18    15    18    1
   19    18    19    1
   20    18    20    1
   21    13    21    1
   22    21    22    1
@<TRIPOS>SUBSTRUCTURE
       1 MOL1            1 RESIDUE      1      MOL     
@<SCITEGIC>MOL_PROPERTY
VConf Rank
SciTegic.value.IntegerValue
35

@<SCITEGIC>MOL_PROPERTY
Conf_Id
SciTegic.value.IntegerValue
76

@<SCITEGIC>MOL_PROPERTY
Delta U+W
SciTegic.value.DoubleValue
-3.175

@<SCITEGIC>MOL_PROPERTY
U+W
SciTegic.value.DoubleValue
3.248

@<SCITEGIC>MOL_PROPERTY
Grad RMS
SciTegic.value.DoubleValue
0.000000

@<SCITEGIC>MOL_PROPERTY
U
SciTegic.value.DoubleValue
5.336

@<SCITEGIC>MOL_PROPERTY
W
SciTegic.value.DoubleValue
-2.088

@<SCITEGIC>MOL_PROPERTY
W(PB)
SciTegic.value.DoubleValue
-4.098

@<SCITEGIC>MOL_PROPERTY
W(SA)
SciTegic.value.DoubleValue
2.010

@<SCITEGIC>MOL_PROPERTY
Valence
SciTegic.value.DoubleValue
12.390

@<SCITEGIC>MOL_PROPERTY
Coulomb
SciTegic.value.DoubleValue
-9.270

@<SCITEGIC>MOL_PROPERTY
VdW
SciTegic.value.DoubleValue
2.216

@<SCITEGIC>MOL_PROPERTY
VdW6
SciTegic.value.DoubleValue
-8.967

@<SCITEGIC>MOL_PROPERTY
VdW12
SciTegic.value.DoubleValue
11.183

@<SCITEGIC>MOL_PROPERTY
Bond
SciTegic.value.DoubleValue
0.218

@<SCITEGIC>MOL_PROPERTY
Angle
SciTegic.value.DoubleValue
2.426

@<SCITEGIC>MOL_PROPERTY
Pdih
SciTegic.value.DoubleValue
9.745

@<SCITEGIC>MOL_PROPERTY
Idih
SciTegic.value.DoubleValue
0.000

@<SCITEGIC>MOL_PROPERTY
Tether
SciTegic.value.DoubleValue
0.000

@<TRIPOS>MOLECULE
guest-5_confgen4.mol2 : confsearch ligand conformer 36
          22          22           1
SMALL
USER_CHARGES
 
@<TRIPOS>ATOM
       1    C1      21.901809   19.905066   22.878492 C.3        1 MOL1        -0.1685
       2    H1      22.369359   20.688391   23.490521 H          1 MOL1         0.0832
       3    H2      22.731102   19.314588   22.465667 H          1 MOL1         0.0832
       4    C2      21.144326   20.587858   21.714581 C.3        1 MOL1        -0.1685
       5    H3      20.697512   21.526700   22.068717 H          1 MOL1         0.0832
       6    H4      21.882143   20.881835   20.955642 H          1 MOL1         0.0832
       7    C3      20.053805   19.719557   21.044986 C.3        1 MOL1        -0.1685
       8    H5      20.368265   18.668584   20.986620 H          1 MOL1         0.0832
       9    H6      19.935859   20.060322   20.007556 H          1 MOL1         0.0832
      10    C4      18.675306   19.844459   21.742281 C.3        1 MOL1        -0.1761
      11    H7      18.420907   20.906522   21.850980 H          1 MOL1         0.0832
      12    H8      17.907972   19.423991   21.079092 H          1 MOL1         0.0832
      13    C5      18.542189   19.157287   23.120386 C.3        1 MOL1         0.1218
      14    H9      17.586555   19.490907   23.549990 H          1 MOL1         0.0789
      15    C6      19.650331   19.511834   24.143520 C.3        1 MOL1        -0.1761
      16    H10     19.684414   20.598695   24.293355 H          1 MOL1         0.0832
      17    H11     19.354217   19.088831   25.112113 H          1 MOL1         0.0832
      18    C7      21.064658   18.980174   23.793903 C.3        1 MOL1        -0.1685
      19    H12     21.626354   18.830302   24.725815 H          1 MOL1         0.0832
      20    H13     20.990532   17.985007   23.336095 H          1 MOL1         0.0832
      21    O1      18.477782   17.746449   22.937600 O.3        1 MOL1        -0.5509
      22    H14     18.446823   17.350450   23.832313 H          1 MOL1         0.3779
@<TRIPOS>BOND
    1     1     2    1
    2     1     3    1
    3     1     4    1
    4     4     5    1
    5     4     6    1
    6     4     7    1
    7     7     8    1
    8     7     9    1
    9     7    10    1
   10    10    11    1
   11    10    12    1
   12    10    13    1
   13    13    14    1
   14    13    15    1
   15    15    16    1
   16    15    17    1
   17     1    18    1
   18    15    18    1
   19    18    19    1
   20    18    20    1
   21    13    21    1
   22    21    22    1
@<TRIPOS>SUBSTRUCTURE
       1 MOL1            1 RESIDUE      1      MOL     
@<SCITEGIC>MOL_PROPERTY
VConf Rank
SciTegic.value.IntegerValue
36

@<SCITEGIC>MOL_PROPERTY
Conf_Id
SciTegic.value.IntegerValue
95

@<SCITEGIC>MOL_PROPERTY
Delta U+W
SciTegic.value.DoubleValue
-2.289

@<SCITEGIC>MOL_PROPERTY
U+W
SciTegic.value.DoubleValue
4.134

@<SCITEGIC>MOL_PROPERTY
Grad RMS
SciTegic.value.DoubleValue
0.000000

@<SCITEGIC>MOL_PROPERTY
U
SciTegic.value.DoubleValue
6.373

@<SCITEGIC>MOL_PROPERTY
W
SciTegic.value.DoubleValue
-2.240

@<SCITEGIC>MOL_PROPERTY
W(PB)
SciTegic.value.DoubleValue
-4.254

@<SCITEGIC>MOL_PROPERTY
W(SA)
SciTegic.value.DoubleValue
2.015

@<SCITEGIC>MOL_PROPERTY
Valence
SciTegic.value.DoubleValue
12.093

@<SCITEGIC>MOL_PROPERTY
Coulomb
SciTegic.value.DoubleValue
-8.058

@<SCITEGIC>MOL_PROPERTY
VdW
SciTegic.value.DoubleValue
2.339

@<SCITEGIC>MOL_PROPERTY
VdW6
SciTegic.value.DoubleValue
-9.683

@<SCITEGIC>MOL_PROPERTY
VdW12
SciTegic.value.DoubleValue
12.022

@<SCITEGIC>MOL_PROPERTY
Bond
SciTegic.value.DoubleValue
0.268

@<SCITEGIC>MOL_PROPERTY
Angle
SciTegic.value.DoubleValue
3.005

@<SCITEGIC>MOL_PROPERTY
Pdih
SciTegic.value.DoubleValue
8.820

@<SCITEGIC>MOL_PROPERTY
Idih
SciTegic.value.DoubleValue
0.000

@<SCITEGIC>MOL_PROPERTY
Tether
SciTegic.value.DoubleValue
0.000

@<TRIPOS>MOLECULE
guest-5_confgen4.mol2 : confsearch ligand conformer 37
          22          22           1
SMALL
USER_CHARGES
 
@<TRIPOS>ATOM
       1    C1      19.593798   18.538894   24.210991 C.3        1 MOL1        -0.1685
       2    H1      20.107061   17.636252   24.569536 H          1 MOL1         0.0832
       3    H2      18.776867   18.719710   24.922833 H          1 MOL1         0.0832
       4    C2      18.987959   18.231189   22.820810 C.3        1 MOL1        -0.1685
       5    H3      19.664273   17.567073   22.265805 H          1 MOL1         0.0832
       6    H4      18.067203   17.651595   22.972727 H          1 MOL1         0.0832
       7    C3      18.663070   19.472833   21.958092 C.3        1 MOL1        -0.1685
       8    H5      18.279795   20.293867   22.579238 H          1 MOL1         0.0832
       9    H6      17.849686   19.205687   21.270004 H          1 MOL1         0.0832
      10    C4      19.869352   19.939717   21.104738 C.3        1 MOL1        -0.1761
      11    H7      20.280955   19.078091   20.563370 H          1 MOL1         0.0832
      12    H8      19.505543   20.624659   20.327898 H          1 MOL1         0.0832
      13    C5      21.017160   20.637035   21.870257 C.3        1 MOL1         0.1218
      14    H9      21.852582   20.742321   21.163089 H          1 MOL1         0.0789
      15    C6      21.556284   19.860412   23.097667 C.3        1 MOL1        -0.1761
      16    H10     21.900588   18.864953   22.789439 H          1 MOL1         0.0832
      17    H11     22.450208   20.391046   23.450026 H          1 MOL1         0.0832
      18    C7      20.568307   19.738449   24.286981 C.3        1 MOL1        -0.1685
      19    H12     21.145557   19.645687   25.216709 H          1 MOL1         0.0832
      20    H13     19.995527   20.669168   24.393301 H          1 MOL1         0.0832
      21    O1      20.599861   21.941598   22.261240 O.3        1 MOL1        -0.5509
      22    H14     20.254697   22.379579   21.456740 H          1 MOL1         0.3779
@<TRIPOS>BOND
    1     1     2    1
    2     1     3    1
    3     1     4    1
    4     4     5    1
    5     4     6    1
    6     4     7    1
    7     7     8    1
    8     7     9    1
    9     7    10    1
   10    10    11    1
   11    10    12    1
   12    10    13    1
   13    13    14    1
   14    13    15    1
   15    15    16    1
   16    15    17    1
   17     1    18    1
   18    15    18    1
   19    18    19    1
   20    18    20    1
   21    13    21    1
   22    21    22    1
@<TRIPOS>SUBSTRUCTURE
       1 MOL1            1 RESIDUE      1      MOL     
@<SCITEGIC>MOL_PROPERTY
VConf Rank
SciTegic.value.IntegerValue
37

@<SCITEGIC>MOL_PROPERTY
Conf_Id
SciTegic.value.IntegerValue
41

@<SCITEGIC>MOL_PROPERTY
Delta U+W
SciTegic.value.DoubleValue
-2.114

@<SCITEGIC>MOL_PROPERTY
U+W
SciTegic.value.DoubleValue
4.310

@<SCITEGIC>MOL_PROPERTY
Grad RMS
SciTegic.value.DoubleValue
0.000000

@<SCITEGIC>MOL_PROPERTY
U
SciTegic.value.DoubleValue
6.598

@<SCITEGIC>MOL_PROPERTY
W
SciTegic.value.DoubleValue
-2.289

@<SCITEGIC>MOL_PROPERTY
W(PB)
SciTegic.value.DoubleValue
-4.294

@<SCITEGIC>MOL_PROPERTY
W(SA)
SciTegic.value.DoubleValue
2.005

@<SCITEGIC>MOL_PROPERTY
Valence
SciTegic.value.DoubleValue
12.082

@<SCITEGIC>MOL_PROPERTY
Coulomb
SciTegic.value.DoubleValue
-7.801

@<SCITEGIC>MOL_PROPERTY
VdW
SciTegic.value.DoubleValue
2.317

@<SCITEGIC>MOL_PROPERTY
VdW6
SciTegic.value.DoubleValue
-9.658

@<SCITEGIC>MOL_PROPERTY
VdW12
SciTegic.value.DoubleValue
11.975

@<SCITEGIC>MOL_PROPERTY
Bond
SciTegic.value.DoubleValue
0.267

@<SCITEGIC>MOL_PROPERTY
Angle
SciTegic.value.DoubleValue
3.051

@<SCITEGIC>MOL_PROPERTY
Pdih
SciTegic.value.DoubleValue
8.764

@<SCITEGIC>MOL_PROPERTY
Idih
SciTegic.value.DoubleValue
0.000

@<SCITEGIC>MOL_PROPERTY
Tether
SciTegic.value.DoubleValue
0.000

@<TRIPOS>MOLECULE
guest-5_confgen4.mol2 : confsearch ligand conformer 38
          22          22           1
SMALL
USER_CHARGES
 
@<TRIPOS>ATOM
       1    C1      21.711778   19.858991   22.885704 C.3        1 MOL1        -0.1685
       2    H1      22.738152   20.007247   23.247818 H          1 MOL1         0.0832
       3    H2      21.783454   19.744013   21.795374 H          1 MOL1         0.0832
       4    C2      20.894259   21.118547   23.249803 C.3        1 MOL1        -0.1685
       5    H3      20.781650   21.180965   24.340676 H          1 MOL1         0.0832
       6    H4      21.468954   22.007047   22.955095 H          1 MOL1         0.0832
       7    C3      19.503631   21.199048   22.582797 C.3        1 MOL1        -0.1685
       8    H5      19.625000   21.350466   21.501950 H          1 MOL1         0.0832
       9    H6      19.003206   22.104233   22.952042 H          1 MOL1         0.0832
      10    C4      18.573417   19.984261   22.847711 C.3        1 MOL1        -0.1761
      11    H7      18.513085   19.783868   23.924958 H          1 MOL1         0.0832
      12    H8      17.558758   20.270196   22.542274 H          1 MOL1         0.0832
      13    C5      18.927968   18.679480   22.088849 C.3        1 MOL1         0.1218
      14    H9      18.032445   18.042133   22.122089 H          1 MOL1         0.0789
      15    C6      20.079971   17.836080   22.694411 C.3        1 MOL1        -0.1761
      16    H10     19.633945   17.062883   23.333387 H          1 MOL1         0.0832
      17    H11     20.584027   17.287621   21.887818 H          1 MOL1         0.0832
      18    C7      21.150535   18.574825   23.535273 C.3        1 MOL1        -0.1685
      19    H12     20.748261   18.806932   24.530620 H          1 MOL1         0.0832
      20    H13     21.981131   17.877232   23.708918 H          1 MOL1         0.0832
      21    O1      19.206995   18.959439   20.719656 O.3        1 MOL1        -0.5509
      22    H14     19.383266   18.100125   20.285585 H          1 MOL1         0.3779
@<TRIPOS>BOND
    1     1     2    1
    2     1     3    1
    3     1     4    1
    4     4     5    1
    5     4     6    1
    6     4     7    1
    7     7     8    1
    8     7     9    1
    9     7    10    1
   10    10    11    1
   11    10    12    1
   12    10    13    1
   13    13    14    1
   14    13    15    1
   15    15    16    1
   16    15    17    1
   17     1    18    1
   18    15    18    1
   19    18    19    1
   20    18    20    1
   21    13    21    1
   22    21    22    1
@<TRIPOS>SUBSTRUCTURE
       1 MOL1            1 RESIDUE      1      MOL     
@<SCITEGIC>MOL_PROPERTY
VConf Rank
SciTegic.value.IntegerValue
38

@<SCITEGIC>MOL_PROPERTY
Conf_Id
SciTegic.value.IntegerValue
104

@<SCITEGIC>MOL_PROPERTY
Delta U+W
SciTegic.value.DoubleValue
-1.172

@<SCITEGIC>MOL_PROPERTY
U+W
SciTegic.value.DoubleValue
5.252

@<SCITEGIC>MOL_PROPERTY
Grad RMS
SciTegic.value.DoubleValue
0.000000

@<SCITEGIC>MOL_PROPERTY
U
SciTegic.value.DoubleValue
7.482

@<SCITEGIC>MOL_PROPERTY
W
SciTegic.value.DoubleValue
-2.230

@<SCITEGIC>MOL_PROPERTY
W(PB)
SciTegic.value.DoubleValue
-4.220

@<SCITEGIC>MOL_PROPERTY
W(SA)
SciTegic.value.DoubleValue
1.990

@<SCITEGIC>MOL_PROPERTY
Valence
SciTegic.value.DoubleValue
12.309

@<SCITEGIC>MOL_PROPERTY
Coulomb
SciTegic.value.DoubleValue
-7.084

@<SCITEGIC>MOL_PROPERTY
VdW
SciTegic.value.DoubleValue
2.258

@<SCITEGIC>MOL_PROPERTY
VdW6
SciTegic.value.DoubleValue
-9.770

@<SCITEGIC>MOL_PROPERTY
VdW12
SciTegic.value.DoubleValue
12.028

@<SCITEGIC>MOL_PROPERTY
Bond
SciTegic.value.DoubleValue
0.284

@<SCITEGIC>MOL_PROPERTY
Angle
SciTegic.value.DoubleValue
3.491

@<SCITEGIC>MOL_PROPERTY
Pdih
SciTegic.value.DoubleValue
8.535

@<SCITEGIC>MOL_PROPERTY
Idih
SciTegic.value.DoubleValue
0.000

@<SCITEGIC>MOL_PROPERTY
Tether
SciTegic.value.DoubleValue
0.000

@<TRIPOS>MOLECULE
guest-5_confgen4.mol2 : confsearch ligand conformer 39
          22          22           1
SMALL
USER_CHARGES
 
@<TRIPOS>ATOM
       1    C1      19.916846   19.382727   24.294472 C.3        1 MOL1        -0.1685
       2    H1      20.856630   18.819534   24.372589 H          1 MOL1         0.0832
       3    H2      19.498673   19.415043   25.309867 H          1 MOL1         0.0832
       4    C2      18.904249   18.644417   23.389469 C.3        1 MOL1        -0.1685
       5    H3      18.436429   17.838681   23.971863 H          1 MOL1         0.0832
       6    H4      18.081281   19.324759   23.134133 H          1 MOL1         0.0832
       7    C3      19.490189   18.015542   22.099948 C.3        1 MOL1        -0.1685
       8    H5      18.685771   17.934843   21.355828 H          1 MOL1         0.0832
       9    H6      19.786489   16.981124   22.321566 H          1 MOL1         0.0832
      10    C4      20.712021   18.723896   21.454531 C.3        1 MOL1        -0.1761
      11    H7      21.618462   18.455220   22.012324 H          1 MOL1         0.0832
      12    H8      20.856495   18.303048   20.451029 H          1 MOL1         0.0832
      13    C5      20.646659   20.263044   21.325178 C.3        1 MOL1         0.1218
      14    H9      21.349308   20.554591   20.531348 H          1 MOL1         0.0789
      15    C6      21.097046   20.993067   22.610669 C.3        1 MOL1        -0.1761
      16    H10     22.107542   20.653195   22.872290 H          1 MOL1         0.0832
      17    H11     21.195221   22.062010   22.380523 H          1 MOL1         0.0832
      18    C7      20.180028   20.841075   23.849527 C.3        1 MOL1        -0.1685
      19    H12     20.651619   21.376626   24.684690 H          1 MOL1         0.0832
      20    H13     19.225418   21.354403   23.671504 H          1 MOL1         0.0832
      21    O1      19.339549   20.677628   20.959458 O.3        1 MOL1        -0.5509
      22    H14     18.767785   20.313047   21.664052 H          1 MOL1         0.3779
@<TRIPOS>BOND
    1     1     2    1
    2     1     3    1
    3     1     4    1
    4     4     5    1
    5     4     6    1
    6     4     7    1
    7     7     8    1
    8     7     9    1
    9     7    10    1
   10    10    11    1
   11    10    12    1
   12    10    13    1
   13    13    14    1
   14    13    15    1
   15    15    16    1
   16    15    17    1
   17     1    18    1
   18    15    18    1
   19    18    19    1
   20    18    20    1
   21    13    21    1
   22    21    22    1
@<TRIPOS>SUBSTRUCTURE
       1 MOL1            1 RESIDUE      1      MOL     
@<SCITEGIC>MOL_PROPERTY
VConf Rank
SciTegic.value.IntegerValue
39

@<SCITEGIC>MOL_PROPERTY
Conf_Id
SciTegic.value.IntegerValue
99

@<SCITEGIC>MOL_PROPERTY
Delta U+W
SciTegic.value.DoubleValue
-3.852

@<SCITEGIC>MOL_PROPERTY
U+W
SciTegic.value.DoubleValue
2.572

@<SCITEGIC>MOL_PROPERTY
Grad RMS
SciTegic.value.DoubleValue
0.000000

@<SCITEGIC>MOL_PROPERTY
U
SciTegic.value.DoubleValue
3.922

@<SCITEGIC>MOL_PROPERTY
W
SciTegic.value.DoubleValue
-1.350

@<SCITEGIC>MOL_PROPERTY
W(PB)
SciTegic.value.DoubleValue
-3.345

@<SCITEGIC>MOL_PROPERTY
W(SA)
SciTegic.value.DoubleValue
1.995

@<SCITEGIC>MOL_PROPERTY
Valence
SciTegic.value.DoubleValue
12.571

@<SCITEGIC>MOL_PROPERTY
Coulomb
SciTegic.value.DoubleValue
-10.581

@<SCITEGIC>MOL_PROPERTY
VdW
SciTegic.value.DoubleValue
1.932

@<SCITEGIC>MOL_PROPERTY
VdW6
SciTegic.value.DoubleValue
-10.483

@<SCITEGIC>MOL_PROPERTY
VdW12
SciTegic.value.DoubleValue
12.415

@<SCITEGIC>MOL_PROPERTY
Bond
SciTegic.value.DoubleValue
0.268

@<SCITEGIC>MOL_PROPERTY
Angle
SciTegic.value.DoubleValue
3.728

@<SCITEGIC>MOL_PROPERTY
Pdih
SciTegic.value.DoubleValue
8.575

@<SCITEGIC>MOL_PROPERTY
Idih
SciTegic.value.DoubleValue
0.000

@<SCITEGIC>MOL_PROPERTY
Tether
SciTegic.value.DoubleValue
0.000

@<TRIPOS>MOLECULE
guest-5_confgen4.mol2 : confsearch ligand conformer 40
          22          22           1
SMALL
USER_CHARGES
 
@<TRIPOS>ATOM
       1    C1      19.297500   18.121989   22.563249 C.3        1 MOL1        -0.1685
       2    H1      18.952037   17.172992   22.996089 H          1 MOL1         0.0832
       3    H2      18.938093   18.107296   21.525624 H          1 MOL1         0.0832
       4    C2      20.854109   18.121129   22.591849 C.3        1 MOL1        -0.1685
       5    H3      21.182396   17.171691   23.036917 H          1 MOL1         0.0832
       6    H4      21.251386   18.106169   21.568130 H          1 MOL1         0.0832
       7    C3      21.519190   19.271615   23.389847 C.3        1 MOL1        -0.1685
       8    H5      22.589524   19.047397   23.493953 H          1 MOL1         0.0832
       9    H6      21.137578   19.277733   24.418392 H          1 MOL1         0.0832
      10    C4      21.388983   20.692214   22.773590 C.3        1 MOL1        -0.1761
      11    H7      21.530006   21.428184   23.575589 H          1 MOL1         0.0832
      12    H8      22.229391   20.849612   22.084433 H          1 MOL1         0.0832
      13    C5      20.087951   21.042538   22.010212 C.3        1 MOL1         0.1218
      14    H9      20.091410   22.131104   21.855988 H          1 MOL1         0.0789
      15    C6      18.759152   20.693669   22.724866 C.3        1 MOL1        -0.1761
      16    H10     18.589218   21.429945   23.520956 H          1 MOL1         0.0832
      17    H11     17.945029   20.851739   22.004995 H          1 MOL1         0.0832
      18    C7      18.604810   19.273337   23.336124 C.3        1 MOL1        -0.1685
      19    H12     18.948367   19.279229   24.377998 H          1 MOL1         0.0832
      20    H13     17.531126   19.050316   23.400847 H          1 MOL1         0.0832
      21    O1      20.111377   20.437723   20.726899 O.3        1 MOL1        -0.5509
      22    H14     20.107235   19.478279   20.917640 H          1 MOL1         0.3779
@<TRIPOS>BOND
    1     1     2    1
    2     1     3    1
    3     1     4    1
    4     4     5    1
    5     4     6    1
    6     4     7    1
    7     7     8    1
    8     7     9    1
    9     7    10    1
   10    10    11    1
   11    10    12    1
   12    10    13    1
   13    13    14    1
   14    13    15    1
   15    15    16    1
   16    15    17    1
   17     1    18    1
   18    15    18    1
   19    18    19    1
   20    18    20    1
   21    13    21    1
   22    21    22    1
@<TRIPOS>SUBSTRUCTURE
       1 MOL1            1 RESIDUE      1      MOL     
@<SCITEGIC>MOL_PROPERTY
VConf Rank
SciTegic.value.IntegerValue
40

@<SCITEGIC>MOL_PROPERTY
Conf_Id
SciTegic.value.IntegerValue
98

@<SCITEGIC>MOL_PROPERTY
Delta U+W
SciTegic.value.DoubleValue
0.930

@<SCITEGIC>MOL_PROPERTY
U+W
SciTegic.value.DoubleValue
7.353

@<SCITEGIC>MOL_PROPERTY
Grad RMS
SciTegic.value.DoubleValue
0.000000

@<SCITEGIC>MOL_PROPERTY
U
SciTegic.value.DoubleValue
8.455

@<SCITEGIC>MOL_PROPERTY
W
SciTegic.value.DoubleValue
-1.102

@<SCITEGIC>MOL_PROPERTY
W(PB)
SciTegic.value.DoubleValue
-3.101

@<SCITEGIC>MOL_PROPERTY
W(SA)
SciTegic.value.DoubleValue
2.000

@<SCITEGIC>MOL_PROPERTY
Valence
SciTegic.value.DoubleValue
15.601

@<SCITEGIC>MOL_PROPERTY
Coulomb
SciTegic.value.DoubleValue
-10.573

@<SCITEGIC>MOL_PROPERTY
VdW
SciTegic.value.DoubleValue
3.427

@<SCITEGIC>MOL_PROPERTY
VdW6
SciTegic.value.DoubleValue
-11.360

@<SCITEGIC>MOL_PROPERTY
VdW12
SciTegic.value.DoubleValue
14.787

@<SCITEGIC>MOL_PROPERTY
Bond
SciTegic.value.DoubleValue
0.471

@<SCITEGIC>MOL_PROPERTY
Angle
SciTegic.value.DoubleValue
5.445

@<SCITEGIC>MOL_PROPERTY
Pdih
SciTegic.value.DoubleValue
9.685

@<SCITEGIC>MOL_PROPERTY
Idih
SciTegic.value.DoubleValue
0.000

@<SCITEGIC>MOL_PROPERTY
Tether
SciTegic.value.DoubleValue
0.000

@<TRIPOS>MOLECULE
guest-5_confgen4.mol2 : confsearch ligand conformer 41
          22          22           1
SMALL
USER_CHARGES
 
@<TRIPOS>ATOM
       1    C1      18.561989   19.311388   23.544717 C.3        1 MOL1        -0.1685
       2    H1      19.001313   19.949660   24.322138 H          1 MOL1         0.0832
       3    H2      17.549222   19.081842   23.902942 H          1 MOL1         0.0832
       4    C2      19.360512   17.987088   23.441033 C.3        1 MOL1        -0.1685
       5    H3      19.319309   17.498338   24.424038 H          1 MOL1         0.0832
       6    H4      18.851315   17.304004   22.747680 H          1 MOL1         0.0832
       7    C3      20.852793   18.115728   23.027274 C.3        1 MOL1        -0.1685
       8    H5      20.977725   17.828619   21.975145 H          1 MOL1         0.0832
       9    H6      21.430483   17.372609   23.593563 H          1 MOL1         0.0832
      10    C4      21.480733   19.515544   23.259474 C.3        1 MOL1        -0.1761
      11    H7      21.297077   19.824951   24.295893 H          1 MOL1         0.0832
      12    H8      22.572331   19.420853   23.183080 H          1 MOL1         0.0832
      13    C5      21.004086   20.642859   22.297269 C.3        1 MOL1         0.1218
      14    H9      20.779417   21.532694   22.902898 H          1 MOL1         0.0789
      15    C6      19.757520   20.316602   21.437103 C.3        1 MOL1        -0.1761
      16    H10     19.596663   21.132489   20.720506 H          1 MOL1         0.0832
      17    H11     19.955519   19.431114   20.821232 H          1 MOL1         0.0832
      18    C7      18.440613   20.112171   22.226896 C.3        1 MOL1        -0.1685
      19    H12     18.011460   21.095481   22.462994 H          1 MOL1         0.0832
      20    H13     17.713689   19.616164   21.569454 H          1 MOL1         0.0832
      21    O1      22.068283   20.953586   21.405019 O.3        1 MOL1        -0.5509
      22    H14     21.763201   21.702020   20.850988 H          1 MOL1         0.3779
@<TRIPOS>BOND
    1     1     2    1
    2     1     3    1
    3     1     4    1
    4     4     5    1
    5     4     6    1
    6     4     7    1
    7     7     8    1
    8     7     9    1
    9     7    10    1
   10    10    11    1
   11    10    12    1
   12    10    13    1
   13    13    14    1
   14    13    15    1
   15    15    16    1
   16    15    17    1
   17     1    18    1
   18    15    18    1
   19    18    19    1
   20    18    20    1
   21    13    21    1
   22    21    22    1
@<TRIPOS>SUBSTRUCTURE
       1 MOL1            1 RESIDUE      1      MOL     
@<SCITEGIC>MOL_PROPERTY
VConf Rank
SciTegic.value.IntegerValue
41

@<SCITEGIC>MOL_PROPERTY
Conf_Id
SciTegic.value.IntegerValue
141

@<SCITEGIC>MOL_PROPERTY
Delta U+W
SciTegic.value.DoubleValue
0.000

@<SCITEGIC>MOL_PROPERTY
U+W
SciTegic.value.DoubleValue
6.423

@<SCITEGIC>MOL_PROPERTY
Grad RMS
SciTegic.value.DoubleValue
0.000000

@<SCITEGIC>MOL_PROPERTY
U
SciTegic.value.DoubleValue
8.781

@<SCITEGIC>MOL_PROPERTY
W
SciTegic.value.DoubleValue
-2.358

@<SCITEGIC>MOL_PROPERTY
W(PB)
SciTegic.value.DoubleValue
-4.373

@<SCITEGIC>MOL_PROPERTY
W(SA)
SciTegic.value.DoubleValue
2.015

@<SCITEGIC>MOL_PROPERTY
Valence
SciTegic.value.DoubleValue
13.328

@<SCITEGIC>MOL_PROPERTY
Coulomb
SciTegic.value.DoubleValue
-8.387

@<SCITEGIC>MOL_PROPERTY
VdW
SciTegic.value.DoubleValue
3.840

@<SCITEGIC>MOL_PROPERTY
VdW6
SciTegic.value.DoubleValue
-9.744

@<SCITEGIC>MOL_PROPERTY
VdW12
SciTegic.value.DoubleValue
13.584

@<SCITEGIC>MOL_PROPERTY
Bond
SciTegic.value.DoubleValue
0.436

@<SCITEGIC>MOL_PROPERTY
Angle
SciTegic.value.DoubleValue
3.478

@<SCITEGIC>MOL_PROPERTY
Pdih
SciTegic.value.DoubleValue
9.415

@<SCITEGIC>MOL_PROPERTY
Idih
SciTegic.value.DoubleValue
0.000

@<SCITEGIC>MOL_PROPERTY
Tether
SciTegic.value.DoubleValue
0.000

@<TRIPOS>MOLECULE
guest-5_confgen4.mol2 : confsearch ligand conformer 42
          22          22           1
SMALL
USER_CHARGES
 
@<TRIPOS>ATOM
       1    C1      19.127966   20.775714   21.675044 C.3        1 MOL1        -0.1685
       2    H1      19.670351   20.398494   20.797472 H          1 MOL1         0.0832
       3    H2      18.433050   21.538397   21.297801 H          1 MOL1         0.0832
       4    C2      20.093283   21.469226   22.666436 C.3        1 MOL1        -0.1685
       5    H3      20.461537   22.396076   22.205792 H          1 MOL1         0.0832
       6    H4      19.535378   21.781288   23.559878 H          1 MOL1         0.0832
       7    C3      21.315634   20.625516   23.095788 C.3        1 MOL1        -0.1685
       8    H5      21.880339   21.197345   23.844751 H          1 MOL1         0.0832
       9    H6      21.992976   20.502542   22.239608 H          1 MOL1         0.0832
      10    C4      20.975753   19.235984   23.688122 C.3        1 MOL1        -0.1761
      11    H7      21.886981   18.843794   24.158584 H          1 MOL1         0.0832
      12    H8      20.232981   19.328464   24.491076 H          1 MOL1         0.0832
      13    C5      20.492610   18.232785   22.616772 C.3        1 MOL1         0.1218
      14    H9      21.010226   18.460386   21.673843 H          1 MOL1         0.0789
      15    C6      18.969828   18.259364   22.352718 C.3        1 MOL1        -0.1761
      16    H10     18.792479   17.768357   21.387156 H          1 MOL1         0.0832
      17    H11     18.460061   17.640269   23.103031 H          1 MOL1         0.0832
      18    C7      18.293069   19.652808   22.333885 C.3        1 MOL1        -0.1685
      19    H12     17.337457   19.558823   21.800221 H          1 MOL1         0.0832
      20    H13     18.029558   19.947177   23.358882 H          1 MOL1         0.0832
      21    O1      20.845766   16.917676   23.027851 O.3        1 MOL1        -0.5509
      22    H14     21.821775   16.902023   23.116060 H          1 MOL1         0.3779
@<TRIPOS>BOND
    1     1     2    1
    2     1     3    1
    3     1     4    1
    4     4     5    1
    5     4     6    1
    6     4     7    1
    7     7     8    1
    8     7     9    1
    9     7    10    1
   10    10    11    1
   11    10    12    1
   12    10    13    1
   13    13    14    1
   14    13    15    1
   15    15    16    1
   16    15    17    1
   17     1    18    1
   18    15    18    1
   19    18    19    1
   20    18    20    1
   21    13    21    1
   22    21    22    1
@<TRIPOS>SUBSTRUCTURE
       1 MOL1            1 RESIDUE      1      MOL     
@<SCITEGIC>MOL_PROPERTY
VConf Rank
SciTegic.value.IntegerValue
42

@<SCITEGIC>MOL_PROPERTY
Conf_Id
SciTegic.value.IntegerValue
144

@<SCITEGIC>MOL_PROPERTY
Delta U+W
SciTegic.value.DoubleValue
-3.291

@<SCITEGIC>MOL_PROPERTY
U+W
SciTegic.value.DoubleValue
3.132

@<SCITEGIC>MOL_PROPERTY
Grad RMS
SciTegic.value.DoubleValue
0.000000

@<SCITEGIC>MOL_PROPERTY
U
SciTegic.value.DoubleValue
5.411

@<SCITEGIC>MOL_PROPERTY
W
SciTegic.value.DoubleValue
-2.279

@<SCITEGIC>MOL_PROPERTY
W(PB)
SciTegic.value.DoubleValue
-4.300

@<SCITEGIC>MOL_PROPERTY
W(SA)
SciTegic.value.DoubleValue
2.021

@<SCITEGIC>MOL_PROPERTY
Valence
SciTegic.value.DoubleValue
11.909

@<SCITEGIC>MOL_PROPERTY
Coulomb
SciTegic.value.DoubleValue
-8.733

@<SCITEGIC>MOL_PROPERTY
VdW
SciTegic.value.DoubleValue
2.236

@<SCITEGIC>MOL_PROPERTY
VdW6
SciTegic.value.DoubleValue
-8.936

@<SCITEGIC>MOL_PROPERTY
VdW12
SciTegic.value.DoubleValue
11.172

@<SCITEGIC>MOL_PROPERTY
Bond
SciTegic.value.DoubleValue
0.223

@<SCITEGIC>MOL_PROPERTY
Angle
SciTegic.value.DoubleValue
2.457

@<SCITEGIC>MOL_PROPERTY
Pdih
SciTegic.value.DoubleValue
9.228

@<SCITEGIC>MOL_PROPERTY
Idih
SciTegic.value.DoubleValue
0.000

@<SCITEGIC>MOL_PROPERTY
Tether
SciTegic.value.DoubleValue
0.000

@<TRIPOS>MOLECULE
guest-5_confgen4.mol2 : confsearch ligand conformer 43
          22          22           1
SMALL
USER_CHARGES
 
@<TRIPOS>ATOM
       1    C1      18.484710   20.409143   22.262527 C.3        1 MOL1        -0.1685
       2    H1      17.577202   20.785420   21.770860 H          1 MOL1         0.0832
       3    H2      18.555146   20.942917   23.220028 H          1 MOL1         0.0832
       4    C2      19.692837   20.741792   21.355969 C.3        1 MOL1        -0.1685
       5    H3      19.781763   19.978686   20.570771 H          1 MOL1         0.0832
       6    H4      19.491770   21.683683   20.827373 H          1 MOL1         0.0832
       7    C3      21.045933   20.888514   22.093209 C.3        1 MOL1        -0.1685
       8    H5      21.124865   21.907589   22.495913 H          1 MOL1         0.0832
       9    H6      21.851398   20.797823   21.351576 H          1 MOL1         0.0832
      10    C4      21.310056   19.891793   23.248600 C.3        1 MOL1        -0.1761
      11    H7      22.390524   19.885319   23.446128 H          1 MOL1         0.0832
      12    H8      20.842052   20.271326   24.166108 H          1 MOL1         0.0832
      13    C5      20.825072   18.448158   22.987249 C.3        1 MOL1         0.1218
      14    H9      20.940660   18.208277   21.920682 H          1 MOL1         0.0789
      15    C6      19.354636   18.231183   23.411179 C.3        1 MOL1        -0.1761
      16    H10     19.152700   17.152069   23.440597 H          1 MOL1         0.0832
      17    H11     19.211748   18.594533   24.437165 H          1 MOL1         0.0832
      18    C7      18.301137   18.889242   22.488783 C.3        1 MOL1        -0.1685
      19    H12     18.294414   18.374151   21.518442 H          1 MOL1         0.0832
      20    H13     17.307812   18.717608   22.925400 H          1 MOL1         0.0832
      21    O1      21.633849   17.560572   23.747697 O.3        1 MOL1        -0.5509
      22    H14     21.505790   17.805826   24.687171 H          1 MOL1         0.3779
@<TRIPOS>BOND
    1     1     2    1
    2     1     3    1
    3     1     4    1
    4     4     5    1
    5     4     6    1
    6     4     7    1
    7     7     8    1
    8     7     9    1
    9     7    10    1
   10    10    11    1
   11    10    12    1
   12    10    13    1
   13    13    14    1
   14    13    15    1
   15    15    16    1
   16    15    17    1
   17     1    18    1
   18    15    18    1
   19    18    19    1
   20    18    20    1
   21    13    21    1
   22    21    22    1
@<TRIPOS>SUBSTRUCTURE
       1 MOL1            1 RESIDUE      1      MOL     
@<SCITEGIC>MOL_PROPERTY
VConf Rank
SciTegic.value.IntegerValue
43

@<SCITEGIC>MOL_PROPERTY
Conf_Id
SciTegic.value.IntegerValue
76

@<SCITEGIC>MOL_PROPERTY
Delta U+W
SciTegic.value.DoubleValue
-3.175

@<SCITEGIC>MOL_PROPERTY
U+W
SciTegic.value.DoubleValue
3.248

@<SCITEGIC>MOL_PROPERTY
Grad RMS
SciTegic.value.DoubleValue
0.000000

@<SCITEGIC>MOL_PROPERTY
U
SciTegic.value.DoubleValue
5.336

@<SCITEGIC>MOL_PROPERTY
W
SciTegic.value.DoubleValue
-2.088

@<SCITEGIC>MOL_PROPERTY
W(PB)
SciTegic.value.DoubleValue
-4.098

@<SCITEGIC>MOL_PROPERTY
W(SA)
SciTegic.value.DoubleValue
2.010

@<SCITEGIC>MOL_PROPERTY
Valence
SciTegic.value.DoubleValue
12.390

@<SCITEGIC>MOL_PROPERTY
Coulomb
SciTegic.value.DoubleValue
-9.270

@<SCITEGIC>MOL_PROPERTY
VdW
SciTegic.value.DoubleValue
2.216

@<SCITEGIC>MOL_PROPERTY
VdW6
SciTegic.value.DoubleValue
-8.967

@<SCITEGIC>MOL_PROPERTY
VdW12
SciTegic.value.DoubleValue
11.183

@<SCITEGIC>MOL_PROPERTY
Bond
SciTegic.value.DoubleValue
0.218

@<SCITEGIC>MOL_PROPERTY
Angle
SciTegic.value.DoubleValue
2.426

@<SCITEGIC>MOL_PROPERTY
Pdih
SciTegic.value.DoubleValue
9.745

@<SCITEGIC>MOL_PROPERTY
Idih
SciTegic.value.DoubleValue
0.000

@<SCITEGIC>MOL_PROPERTY
Tether
SciTegic.value.DoubleValue
0.000

@<TRIPOS>MOLECULE
guest-5_confgen4.mol2 : confsearch ligand conformer 44
          22          22           1
SMALL
USER_CHARGES
 
@<TRIPOS>ATOM
       1    C1      21.939022   19.453053   22.596342 C.3        1 MOL1        -0.1685
       2    H1      22.664138   20.199522   22.948153 H          1 MOL1         0.0832
       3    H2      22.535404   18.596079   22.254674 H          1 MOL1         0.0832
       4    C2      21.178976   20.048968   21.387255 C.3        1 MOL1        -0.1685
       5    H3      21.019530   21.123776   21.548017 H          1 MOL1         0.0832
       6    H4      21.832309   19.977556   20.507005 H          1 MOL1         0.0832
       7    C3      19.826913   19.370783   21.065490 C.3        1 MOL1        -0.1685
       8    H5      19.881367   18.286128   21.230996 H          1 MOL1         0.0832
       9    H6      19.624019   19.505737   19.994549 H          1 MOL1         0.0832
      10    C4      18.643176   19.989507   21.851637 C.3        1 MOL1        -0.1761
      11    H7      18.657024   21.079676   21.725729 H          1 MOL1         0.0832
      12    H8      17.704110   19.651874   21.393845 H          1 MOL1         0.0832
      13    C5      18.581163   19.663667   23.361299 C.3        1 MOL1         0.1218
      14    H9      17.807892   20.314387   23.794558 H          1 MOL1         0.0789
      15    C6      19.890553   19.926572   24.146708 C.3        1 MOL1        -0.1761
      16    H10     20.193754   20.974419   24.024377 H          1 MOL1         0.0832
      17    H11     19.665989   19.806312   25.214367 H          1 MOL1         0.0832
      18    C7      21.072418   18.987588   23.790731 C.3        1 MOL1        -0.1685
      19    H12     21.727881   18.896341   24.667352 H          1 MOL1         0.0832
      20    H13     20.702008   17.972169   23.597957 H          1 MOL1         0.0832
      21    O1      18.170095   18.311116   23.533496 O.3        1 MOL1        -0.5509
      22    H14     18.194480   18.132579   24.495688 H          1 MOL1         0.3779
@<TRIPOS>BOND
    1     1     2    1
    2     1     3    1
    3     1     4    1
    4     4     5    1
    5     4     6    1
    6     4     7    1
    7     7     8    1
    8     7     9    1
    9     7    10    1
   10    10    11    1
   11    10    12    1
   12    10    13    1
   13    13    14    1
   14    13    15    1
   15    15    16    1
   16    15    17    1
   17     1    18    1
   18    15    18    1
   19    18    19    1
   20    18    20    1
   21    13    21    1
   22    21    22    1
@<TRIPOS>SUBSTRUCTURE
       1 MOL1            1 RESIDUE      1      MOL     
@<SCITEGIC>MOL_PROPERTY
VConf Rank
SciTegic.value.IntegerValue
44

@<SCITEGIC>MOL_PROPERTY
Conf_Id
SciTegic.value.IntegerValue
95

@<SCITEGIC>MOL_PROPERTY
Delta U+W
SciTegic.value.DoubleValue
-2.289

@<SCITEGIC>MOL_PROPERTY
U+W
SciTegic.value.DoubleValue
4.134

@<SCITEGIC>MOL_PROPERTY
Grad RMS
SciTegic.value.DoubleValue
0.000000

@<SCITEGIC>MOL_PROPERTY
U
SciTegic.value.DoubleValue
6.373

@<SCITEGIC>MOL_PROPERTY
W
SciTegic.value.DoubleValue
-2.240

@<SCITEGIC>MOL_PROPERTY
W(PB)
SciTegic.value.DoubleValue
-4.254

@<SCITEGIC>MOL_PROPERTY
W(SA)
SciTegic.value.DoubleValue
2.015

@<SCITEGIC>MOL_PROPERTY
Valence
SciTegic.value.DoubleValue
12.093

@<SCITEGIC>MOL_PROPERTY
Coulomb
SciTegic.value.DoubleValue
-8.058

@<SCITEGIC>MOL_PROPERTY
VdW
SciTegic.value.DoubleValue
2.339

@<SCITEGIC>MOL_PROPERTY
VdW6
SciTegic.value.DoubleValue
-9.683

@<SCITEGIC>MOL_PROPERTY
VdW12
SciTegic.value.DoubleValue
12.022

@<SCITEGIC>MOL_PROPERTY
Bond
SciTegic.value.DoubleValue
0.268

@<SCITEGIC>MOL_PROPERTY
Angle
SciTegic.value.DoubleValue
3.005

@<SCITEGIC>MOL_PROPERTY
Pdih
SciTegic.value.DoubleValue
8.820

@<SCITEGIC>MOL_PROPERTY
Idih
SciTegic.value.DoubleValue
0.000

@<SCITEGIC>MOL_PROPERTY
Tether
SciTegic.value.DoubleValue
0.000

@<TRIPOS>MOLECULE
guest-5_confgen4.mol2 : confsearch ligand conformer 45
          22          22           1
SMALL
USER_CHARGES
 
@<TRIPOS>ATOM
       1    C1      18.821997   18.508514   21.756463 C.3        1 MOL1        -0.1685
       2    H1      18.880628   18.179479   20.710016 H          1 MOL1         0.0832
       3    H2      17.925744   18.026744   22.170490 H          1 MOL1         0.0832
       4    C2      18.618148   20.042323   21.770817 C.3        1 MOL1        -0.1685
       5    H3      19.185281   20.494544   20.945992 H          1 MOL1         0.0832
       6    H4      17.562149   20.246343   21.547119 H          1 MOL1         0.0832
       7    C3      18.994288   20.741059   23.098147 C.3        1 MOL1        -0.1685
       8    H5      18.718532   20.120028   23.961338 H          1 MOL1         0.0832
       9    H6      18.397501   21.659503   23.180197 H          1 MOL1         0.0832
      10    C4      20.489744   21.142553   23.159142 C.3        1 MOL1        -0.1761
      11    H7      20.752859   21.687044   22.243066 H          1 MOL1         0.0832
      12    H8      20.626562   21.863483   23.975550 H          1 MOL1         0.0832
      13    C5      21.498540   19.987692   23.355009 C.3        1 MOL1         0.1218
      14    H9      22.501122   20.412222   23.201052 H          1 MOL1         0.0789
      15    C6      21.347917   18.807337   22.362835 C.3        1 MOL1        -0.1761
      16    H10     21.435014   19.171639   21.331241 H          1 MOL1         0.0832
      17    H11     22.206102   18.141024   22.518958 H          1 MOL1         0.0832
      18    C7      20.052321   17.970390   22.525293 C.3        1 MOL1        -0.1685
      19    H12     20.247317   16.947506   22.176147 H          1 MOL1         0.0832
      20    H13     19.803582   17.870529   23.590082 H          1 MOL1         0.0832
      21    O1      21.418795   19.513289   24.695709 O.3        1 MOL1        -0.5509
      22    H14     21.502191   20.296571   25.276828 H          1 MOL1         0.3779
@<TRIPOS>BOND
    1     1     2    1
    2     1     3    1
    3     1     4    1
    4     4     5    1
    5     4     6    1
    6     4     7    1
    7     7     8    1
    8     7     9    1
    9     7    10    1
   10    10    11    1
   11    10    12    1
   12    10    13    1
   13    13    14    1
   14    13    15    1
   15    15    16    1
   16    15    17    1
   17     1    18    1
   18    15    18    1
   19    18    19    1
   20    18    20    1
   21    13    21    1
   22    21    22    1
@<TRIPOS>SUBSTRUCTURE
       1 MOL1            1 RESIDUE      1      MOL     
@<SCITEGIC>MOL_PROPERTY
VConf Rank
SciTegic.value.IntegerValue
45

@<SCITEGIC>MOL_PROPERTY
Conf_Id
SciTegic.value.IntegerValue
41

@<SCITEGIC>MOL_PROPERTY
Delta U+W
SciTegic.value.DoubleValue
-2.114

@<SCITEGIC>MOL_PROPERTY
U+W
SciTegic.value.DoubleValue
4.310

@<SCITEGIC>MOL_PROPERTY
Grad RMS
SciTegic.value.DoubleValue
0.000000

@<SCITEGIC>MOL_PROPERTY
U
SciTegic.value.DoubleValue
6.598

@<SCITEGIC>MOL_PROPERTY
W
SciTegic.value.DoubleValue
-2.289

@<SCITEGIC>MOL_PROPERTY
W(PB)
SciTegic.value.DoubleValue
-4.294

@<SCITEGIC>MOL_PROPERTY
W(SA)
SciTegic.value.DoubleValue
2.005

@<SCITEGIC>MOL_PROPERTY
Valence
SciTegic.value.DoubleValue
12.082

@<SCITEGIC>MOL_PROPERTY
Coulomb
SciTegic.value.DoubleValue
-7.801

@<SCITEGIC>MOL_PROPERTY
VdW
SciTegic.value.DoubleValue
2.317

@<SCITEGIC>MOL_PROPERTY
VdW6
SciTegic.value.DoubleValue
-9.658

@<SCITEGIC>MOL_PROPERTY
VdW12
SciTegic.value.DoubleValue
11.975

@<SCITEGIC>MOL_PROPERTY
Bond
SciTegic.value.DoubleValue
0.267

@<SCITEGIC>MOL_PROPERTY
Angle
SciTegic.value.DoubleValue
3.051

@<SCITEGIC>MOL_PROPERTY
Pdih
SciTegic.value.DoubleValue
8.764

@<SCITEGIC>MOL_PROPERTY
Idih
SciTegic.value.DoubleValue
0.000

@<SCITEGIC>MOL_PROPERTY
Tether
SciTegic.value.DoubleValue
0.000

@<TRIPOS>MOLECULE
guest-5_confgen4.mol2 : confsearch ligand conformer 46
          22          22           1
SMALL
USER_CHARGES
 
@<TRIPOS>ATOM
       1    C1      20.486239   20.092140   21.195614 C.3        1 MOL1        -0.1685
       2    H1      20.545011   20.615135   20.231471 H          1 MOL1         0.0832
       3    H2      21.472459   19.636373   21.359390 H          1 MOL1         0.0832
       4    C2      19.394396   19.005069   21.079239 C.3        1 MOL1        -0.1685
       5    H3      18.410077   19.482105   20.978569 H          1 MOL1         0.0832
       6    H4      19.554468   18.445444   20.147704 H          1 MOL1         0.0832
       7    C3      19.361374   17.997320   22.249099 C.3        1 MOL1        -0.1685
       8    H5      20.263679   17.372182   22.218459 H          1 MOL1         0.0832
       9    H6      18.521698   17.309972   22.079919 H          1 MOL1         0.0832
      10    C4      19.199822   18.627910   23.658866 C.3        1 MOL1        -0.1761
      11    H7      18.342972   19.313450   23.668949 H          1 MOL1         0.0832
      12    H8      18.941554   17.820604   24.356103 H          1 MOL1         0.0832
      13    C5      20.451694   19.341940   24.230714 C.3        1 MOL1         0.1218
      14    H9      20.290441   19.441813   25.313904 H          1 MOL1         0.0789
      15    C6      20.714757   20.775270   23.700145 C.3        1 MOL1        -0.1761
      16    H10     20.276165   21.485946   24.412633 H          1 MOL1         0.0832
      17    H11     21.794490   20.972964   23.723888 H          1 MOL1         0.0832
      18    C7      20.176362   21.134186   22.292946 C.3        1 MOL1        -0.1685
      19    H12     19.093537   21.311680   22.341934 H          1 MOL1         0.0832
      20    H13     20.619161   22.095637   21.999315 H          1 MOL1         0.0832
      21    O1      21.613731   18.539241   24.040286 O.3        1 MOL1        -0.5509
      22    H14     22.359801   19.019251   24.453661 H          1 MOL1         0.3779
@<TRIPOS>BOND
    1     1     2    1
    2     1     3    1
    3     1     4    1
    4     4     5    1
    5     4     6    1
    6     4     7    1
    7     7     8    1
    8     7     9    1
    9     7    10    1
   10    10    11    1
   11    10    12    1
   12    10    13    1
   13    13    14    1
   14    13    15    1
   15    15    16    1
   16    15    17    1
   17     1    18    1
   18    15    18    1
   19    18    19    1
   20    18    20    1
   21    13    21    1
   22    21    22    1
@<TRIPOS>SUBSTRUCTURE
       1 MOL1            1 RESIDUE      1      MOL     
@<SCITEGIC>MOL_PROPERTY
VConf Rank
SciTegic.value.IntegerValue
46

@<SCITEGIC>MOL_PROPERTY
Conf_Id
SciTegic.value.IntegerValue
104

@<SCITEGIC>MOL_PROPERTY
Delta U+W
SciTegic.value.DoubleValue
-1.172

@<SCITEGIC>MOL_PROPERTY
U+W
SciTegic.value.DoubleValue
5.252

@<SCITEGIC>MOL_PROPERTY
Grad RMS
SciTegic.value.DoubleValue
0.000000

@<SCITEGIC>MOL_PROPERTY
U
SciTegic.value.DoubleValue
7.482

@<SCITEGIC>MOL_PROPERTY
W
SciTegic.value.DoubleValue
-2.230

@<SCITEGIC>MOL_PROPERTY
W(PB)
SciTegic.value.DoubleValue
-4.220

@<SCITEGIC>MOL_PROPERTY
W(SA)
SciTegic.value.DoubleValue
1.990

@<SCITEGIC>MOL_PROPERTY
Valence
SciTegic.value.DoubleValue
12.309

@<SCITEGIC>MOL_PROPERTY
Coulomb
SciTegic.value.DoubleValue
-7.084

@<SCITEGIC>MOL_PROPERTY
VdW
SciTegic.value.DoubleValue
2.258

@<SCITEGIC>MOL_PROPERTY
VdW6
SciTegic.value.DoubleValue
-9.770

@<SCITEGIC>MOL_PROPERTY
VdW12
SciTegic.value.DoubleValue
12.028

@<SCITEGIC>MOL_PROPERTY
Bond
SciTegic.value.DoubleValue
0.284

@<SCITEGIC>MOL_PROPERTY
Angle
SciTegic.value.DoubleValue
3.491

@<SCITEGIC>MOL_PROPERTY
Pdih
SciTegic.value.DoubleValue
8.535

@<SCITEGIC>MOL_PROPERTY
Idih
SciTegic.value.DoubleValue
0.000

@<SCITEGIC>MOL_PROPERTY
Tether
SciTegic.value.DoubleValue
0.000

@<TRIPOS>MOLECULE
guest-5_confgen4.mol2 : confsearch ligand conformer 47
          22          22           1
SMALL
USER_CHARGES
 
@<TRIPOS>ATOM
       1    C1      21.507120   18.799283   22.633187 C.3        1 MOL1        -0.1685
       2    H1      21.109687   17.915895   23.151023 H          1 MOL1         0.0832
       3    H2      22.572890   18.595037   22.461843 H          1 MOL1         0.0832
       4    C2      21.404412   20.056130   23.527207 C.3        1 MOL1        -0.1685
       5    H3      22.231608   20.040298   24.250218 H          1 MOL1         0.0832
       6    H4      21.578180   20.951874   22.916647 H          1 MOL1         0.0832
       7    C3      20.083951   20.207163   24.324232 C.3        1 MOL1        -0.1685
       8    H5      19.926926   21.273395   24.538259 H          1 MOL1         0.0832
       9    H6      20.213603   19.729464   25.305008 H          1 MOL1         0.0832
      10    C4      18.795983   19.620794   23.685083 C.3        1 MOL1        -0.1761
      11    H7      18.780504   18.534361   23.841222 H          1 MOL1         0.0832
      12    H8      17.934246   20.004368   24.246582 H          1 MOL1         0.0832
      13    C5      18.559344   19.910155   22.184999 C.3        1 MOL1         0.1218
      14    H9      17.482909   19.791606   21.994964 H          1 MOL1         0.0789
      15    C6      19.289161   18.911397   21.258651 C.3        1 MOL1        -0.1761
      16    H10     18.979461   17.892824   21.526339 H          1 MOL1         0.0832
      17    H11     18.929349   19.069810   20.233622 H          1 MOL1         0.0832
      18    C7      20.836439   18.979643   21.250553 C.3        1 MOL1        -0.1685
      19    H12     21.204419   18.188654   20.582992 H          1 MOL1         0.0832
      20    H13     21.165188   19.924629   20.797337 H          1 MOL1         0.0832
      21    O1      18.940161   21.239962   21.867570 O.3        1 MOL1        -0.5509
      22    H14     19.878167   21.290779   22.139321 H          1 MOL1         0.3779
@<TRIPOS>BOND
    1     1     2    1
    2     1     3    1
    3     1     4    1
    4     4     5    1
    5     4     6    1
    6     4     7    1
    7     7     8    1
    8     7     9    1
    9     7    10    1
   10    10    11    1
   11    10    12    1
   12    10    13    1
   13    13    14    1
   14    13    15    1
   15    15    16    1
   16    15    17    1
   17     1    18    1
   18    15    18    1
   19    18    19    1
   20    18    20    1
   21    13    21    1
   22    21    22    1
@<TRIPOS>SUBSTRUCTURE
       1 MOL1            1 RESIDUE      1      MOL     
@<SCITEGIC>MOL_PROPERTY
VConf Rank
SciTegic.value.IntegerValue
47

@<SCITEGIC>MOL_PROPERTY
Conf_Id
SciTegic.value.IntegerValue
99

@<SCITEGIC>MOL_PROPERTY
Delta U+W
SciTegic.value.DoubleValue
-3.852

@<SCITEGIC>MOL_PROPERTY
U+W
SciTegic.value.DoubleValue
2.572

@<SCITEGIC>MOL_PROPERTY
Grad RMS
SciTegic.value.DoubleValue
0.000000

@<SCITEGIC>MOL_PROPERTY
U
SciTegic.value.DoubleValue
3.922

@<SCITEGIC>MOL_PROPERTY
W
SciTegic.value.DoubleValue
-1.350

@<SCITEGIC>MOL_PROPERTY
W(PB)
SciTegic.value.DoubleValue
-3.345

@<SCITEGIC>MOL_PROPERTY
W(SA)
SciTegic.value.DoubleValue
1.995

@<SCITEGIC>MOL_PROPERTY
Valence
SciTegic.value.DoubleValue
12.571

@<SCITEGIC>MOL_PROPERTY
Coulomb
SciTegic.value.DoubleValue
-10.581

@<SCITEGIC>MOL_PROPERTY
VdW
SciTegic.value.DoubleValue
1.932

@<SCITEGIC>MOL_PROPERTY
VdW6
SciTegic.value.DoubleValue
-10.483

@<SCITEGIC>MOL_PROPERTY
VdW12
SciTegic.value.DoubleValue
12.415

@<SCITEGIC>MOL_PROPERTY
Bond
SciTegic.value.DoubleValue
0.268

@<SCITEGIC>MOL_PROPERTY
Angle
SciTegic.value.DoubleValue
3.728

@<SCITEGIC>MOL_PROPERTY
Pdih
SciTegic.value.DoubleValue
8.575

@<SCITEGIC>MOL_PROPERTY
Idih
SciTegic.value.DoubleValue
0.000

@<SCITEGIC>MOL_PROPERTY
Tether
SciTegic.value.DoubleValue
0.000

@<TRIPOS>MOLECULE
guest-5_confgen4.mol2 : confsearch ligand conformer 48
          22          22           1
SMALL
USER_CHARGES
 
@<TRIPOS>ATOM
       1    C1      21.375435   20.583940   22.352683 C.3        1 MOL1        -0.1685
       2    H1      21.938641   21.257960   21.692542 H          1 MOL1         0.0832
       3    H2      21.953958   20.552830   23.285634 H          1 MOL1         0.0832
       4    C2      21.351510   19.175770   21.689105 C.3        1 MOL1        -0.1685
       5    H3      21.904500   19.240252   20.741827 H          1 MOL1         0.0832
       6    H4      21.918274   18.460102   22.299557 H          1 MOL1         0.0832
       7    C3      19.948198   18.595482   21.378085 C.3        1 MOL1        -0.1685
       8    H5      20.073532   17.705748   20.746111 H          1 MOL1         0.0832
       9    H6      19.386140   19.300500   20.753098 H          1 MOL1         0.0832
      10    C4      19.091669   18.187397   22.608797 C.3        1 MOL1        -0.1761
      11    H7      18.037148   18.176999   22.304461 H          1 MOL1         0.0832
      12    H8      19.329302   17.146788   22.866985 H          1 MOL1         0.0832
      13    C5      19.220247   19.029769   23.901870 C.3        1 MOL1         0.1218
      14    H9      18.390433   18.733885   24.559621 H          1 MOL1         0.0789
      15    C6      19.132309   20.566304   23.730198 C.3        1 MOL1        -0.1761
      16    H10     18.082561   20.837113   23.558637 H          1 MOL1         0.0832
      17    H11     19.395747   21.022392   24.693827 H          1 MOL1         0.0832
      18    C7      19.992994   21.231858   22.620667 C.3        1 MOL1        -0.1685
      19    H12     19.419641   21.280824   21.686625 H          1 MOL1         0.0832
      20    H13     20.151267   22.281689   22.902680 H          1 MOL1         0.0832
      21    O1      20.425386   18.693702   24.571153 O.3        1 MOL1        -0.5509
      22    H14     21.126979   18.974597   23.950027 H          1 MOL1         0.3779
@<TRIPOS>BOND
    1     1     2    1
    2     1     3    1
    3     1     4    1
    4     4     5    1
    5     4     6    1
    6     4     7    1
    7     7     8    1
    8     7     9    1
    9     7    10    1
   10    10    11    1
   11    10    12    1
   12    10    13    1
   13    13    14    1
   14    13    15    1
   15    15    16    1
   16    15    17    1
   17     1    18    1
   18    15    18    1
   19    18    19    1
   20    18    20    1
   21    13    21    1
   22    21    22    1
@<TRIPOS>SUBSTRUCTURE
       1 MOL1            1 RESIDUE      1      MOL     
@<SCITEGIC>MOL_PROPERTY
VConf Rank
SciTegic.value.IntegerValue
48

@<SCITEGIC>MOL_PROPERTY
Conf_Id
SciTegic.value.IntegerValue
98

@<SCITEGIC>MOL_PROPERTY
Delta U+W
SciTegic.value.DoubleValue
0.930

@<SCITEGIC>MOL_PROPERTY
U+W
SciTegic.value.DoubleValue
7.353

@<SCITEGIC>MOL_PROPERTY
Grad RMS
SciTegic.value.DoubleValue
0.000000

@<SCITEGIC>MOL_PROPERTY
U
SciTegic.value.DoubleValue
8.455

@<SCITEGIC>MOL_PROPERTY
W
SciTegic.value.DoubleValue
-1.102

@<SCITEGIC>MOL_PROPERTY
W(PB)
SciTegic.value.DoubleValue
-3.101

@<SCITEGIC>MOL_PROPERTY
W(SA)
SciTegic.value.DoubleValue
2.000

@<SCITEGIC>MOL_PROPERTY
Valence
SciTegic.value.DoubleValue
15.601

@<SCITEGIC>MOL_PROPERTY
Coulomb
SciTegic.value.DoubleValue
-10.573

@<SCITEGIC>MOL_PROPERTY
VdW
SciTegic.value.DoubleValue
3.427

@<SCITEGIC>MOL_PROPERTY
VdW6
SciTegic.value.DoubleValue
-11.360

@<SCITEGIC>MOL_PROPERTY
VdW12
SciTegic.value.DoubleValue
14.787

@<SCITEGIC>MOL_PROPERTY
Bond
SciTegic.value.DoubleValue
0.471

@<SCITEGIC>MOL_PROPERTY
Angle
SciTegic.value.DoubleValue
5.445

@<SCITEGIC>MOL_PROPERTY
Pdih
SciTegic.value.DoubleValue
9.685

@<SCITEGIC>MOL_PROPERTY
Idih
SciTegic.value.DoubleValue
0.000

@<SCITEGIC>MOL_PROPERTY
Tether
SciTegic.value.DoubleValue
0.000

@<TRIPOS>MOLECULE
guest-5_confgen4.mol2 : confsearch ligand conformer 49
          22          22           1
SMALL
USER_CHARGES
 
@<TRIPOS>ATOM
       1    C1      20.004036   21.251842   22.602166 C.3        1 MOL1        -0.1685
       2    H1      20.182120   21.234568   23.685110 H          1 MOL1         0.0832
       3    H2      20.013050   22.315717   22.328668 H          1 MOL1         0.0832
       4    C2      18.599145   20.674919   22.292973 C.3        1 MOL1        -0.1685
       5    H3      17.863333   21.293531   22.824740 H          1 MOL1         0.0832
       6    H4      18.376927   20.800808   21.224613 H          1 MOL1         0.0832
       7    C3      18.362770   19.191929   22.692362 C.3        1 MOL1        -0.1685
       8    H5      18.402513   18.551391   21.801774 H          1 MOL1         0.0832
       9    H6      17.333107   19.097031   23.063066 H          1 MOL1         0.0832
      10    C4      19.332150   18.639288   23.770602 C.3        1 MOL1        -0.1761
      11    H7      19.336292   19.317911   24.632622 H          1 MOL1         0.0832
      12    H8      18.918854   17.697346   24.155724 H          1 MOL1         0.0832
      13    C5      20.797699   18.393959   23.306004 C.3        1 MOL1         0.1218
      14    H9      21.469620   18.810540   24.070236 H          1 MOL1         0.0789
      15    C6      21.185238   19.006065   21.936552 C.3        1 MOL1        -0.1761
      16    H10     22.192773   18.663932   21.666601 H          1 MOL1         0.0832
      17    H11     20.529090   18.605740   21.154376 H          1 MOL1         0.0832
      18    C7      21.177287   20.553945   21.874798 C.3        1 MOL1        -0.1685
      19    H12     22.116631   20.931500   22.301293 H          1 MOL1         0.0832
      20    H13     21.180706   20.860385   20.819927 H          1 MOL1         0.0832
      21    O1      21.014836   16.990032   23.222234 O.3        1 MOL1        -0.5509
      22    H14     21.957077   16.863424   22.984895 H          1 MOL1         0.3779
@<TRIPOS>BOND
    1     1     2    1
    2     1     3    1
    3     1     4    1
    4     4     5    1
    5     4     6    1
    6     4     7    1
    7     7     8    1
    8     7     9    1
    9     7    10    1
   10    10    11    1
   11    10    12    1
   12    10    13    1
   13    13    14    1
   14    13    15    1
   15    15    16    1
   16    15    17    1
   17     1    18    1
   18    15    18    1
   19    18    19    1
   20    18    20    1
   21    13    21    1
   22    21    22    1
@<TRIPOS>SUBSTRUCTURE
       1 MOL1            1 RESIDUE      1      MOL     
@<SCITEGIC>MOL_PROPERTY
VConf Rank
SciTegic.value.IntegerValue
49

@<SCITEGIC>MOL_PROPERTY
Conf_Id
SciTegic.value.IntegerValue
141

@<SCITEGIC>MOL_PROPERTY
Delta U+W
SciTegic.value.DoubleValue
0.000

@<SCITEGIC>MOL_PROPERTY
U+W
SciTegic.value.DoubleValue
6.423

@<SCITEGIC>MOL_PROPERTY
Grad RMS
SciTegic.value.DoubleValue
0.000000

@<SCITEGIC>MOL_PROPERTY
U
SciTegic.value.DoubleValue
8.781

@<SCITEGIC>MOL_PROPERTY
W
SciTegic.value.DoubleValue
-2.358

@<SCITEGIC>MOL_PROPERTY
W(PB)
SciTegic.value.DoubleValue
-4.373

@<SCITEGIC>MOL_PROPERTY
W(SA)
SciTegic.value.DoubleValue
2.015

@<SCITEGIC>MOL_PROPERTY
Valence
SciTegic.value.DoubleValue
13.328

@<SCITEGIC>MOL_PROPERTY
Coulomb
SciTegic.value.DoubleValue
-8.387

@<SCITEGIC>MOL_PROPERTY
VdW
SciTegic.value.DoubleValue
3.840

@<SCITEGIC>MOL_PROPERTY
VdW6
SciTegic.value.DoubleValue
-9.744

@<SCITEGIC>MOL_PROPERTY
VdW12
SciTegic.value.DoubleValue
13.584

@<SCITEGIC>MOL_PROPERTY
Bond
SciTegic.value.DoubleValue
0.436

@<SCITEGIC>MOL_PROPERTY
Angle
SciTegic.value.DoubleValue
3.478

@<SCITEGIC>MOL_PROPERTY
Pdih
SciTegic.value.DoubleValue
9.415

@<SCITEGIC>MOL_PROPERTY
Idih
SciTegic.value.DoubleValue
0.000

@<SCITEGIC>MOL_PROPERTY
Tether
SciTegic.value.DoubleValue
0.000

@<TRIPOS>MOLECULE
guest-5_confgen4.mol2 : confsearch ligand conformer 50
          22          22           1
SMALL
USER_CHARGES
 
@<TRIPOS>ATOM
       1    C1      19.704041   21.131769   23.474779 C.3        1 MOL1        -0.1685
       2    H1      20.754829   21.395744   23.293753 H          1 MOL1         0.0832
       3    H2      19.251977   22.004395   23.965766 H          1 MOL1         0.0832
       4    C2      19.594059   19.934898   24.450002 C.3        1 MOL1        -0.1685
       5    H3      19.925190   20.262618   25.444893 H          1 MOL1         0.0832
       6    H4      18.538109   19.654267   24.564438 H          1 MOL1         0.0832
       7    C3      20.415233   18.685643   24.055841 C.3        1 MOL1        -0.1685
       8    H5      20.200895   17.891313   24.783801 H          1 MOL1         0.0832
       9    H6      21.486602   18.905678   24.159346 H          1 MOL1         0.0832
      10    C4      20.135707   18.141156   22.633667 C.3        1 MOL1        -0.1761
      11    H7      20.592171   17.145031   22.563957 H          1 MOL1         0.0832
      12    H8      19.058699   17.995053   22.479703 H          1 MOL1         0.0832
      13    C5      20.723898   19.041325   21.524003 C.3        1 MOL1         0.1218
      14    H9      21.647601   19.499322   21.905914 H          1 MOL1         0.0789
      15    C6      19.782957   20.171619   21.048228 C.3        1 MOL1        -0.1761
      16    H10     20.396944   20.914664   20.523105 H          1 MOL1         0.0832
      17    H11     19.086401   19.773104   20.298491 H          1 MOL1         0.0832
      18    C7      18.956388   20.892898   22.142113 C.3        1 MOL1        -0.1685
      19    H12     18.629779   21.860733   21.737831 H          1 MOL1         0.0832
      20    H13     18.033799   20.329350   22.336930 H          1 MOL1         0.0832
      21    O1      21.044508   18.231976   20.399111 O.3        1 MOL1        -0.5509
      22    H14     21.699270   17.569952   20.705099 H          1 MOL1         0.3779
@<TRIPOS>BOND
    1     1     2    1
    2     1     3    1
    3     1     4    1
    4     4     5    1
    5     4     6    1
    6     4     7    1
    7     7     8    1
    8     7     9    1
    9     7    10    1
   10    10    11    1
   11    10    12    1
   12    10    13    1
   13    13    14    1
   14    13    15    1
   15    15    16    1
   16    15    17    1
   17     1    18    1
   18    15    18    1
   19    18    19    1
   20    18    20    1
   21    13    21    1
   22    21    22    1
@<TRIPOS>SUBSTRUCTURE
       1 MOL1            1 RESIDUE      1      MOL     
@<SCITEGIC>MOL_PROPERTY
VConf Rank
SciTegic.value.IntegerValue
50

@<SCITEGIC>MOL_PROPERTY
Conf_Id
SciTegic.value.IntegerValue
144

@<SCITEGIC>MOL_PROPERTY
Delta U+W
SciTegic.value.DoubleValue
-3.291

@<SCITEGIC>MOL_PROPERTY
U+W
SciTegic.value.DoubleValue
3.132

@<SCITEGIC>MOL_PROPERTY
Grad RMS
SciTegic.value.DoubleValue
0.000000

@<SCITEGIC>MOL_PROPERTY
U
SciTegic.value.DoubleValue
5.411

@<SCITEGIC>MOL_PROPERTY
W
SciTegic.value.DoubleValue
-2.279

@<SCITEGIC>MOL_PROPERTY
W(PB)
SciTegic.value.DoubleValue
-4.300

@<SCITEGIC>MOL_PROPERTY
W(SA)
SciTegic.value.DoubleValue
2.021

@<SCITEGIC>MOL_PROPERTY
Valence
SciTegic.value.DoubleValue
11.909

@<SCITEGIC>MOL_PROPERTY
Coulomb
SciTegic.value.DoubleValue
-8.733

@<SCITEGIC>MOL_PROPERTY
VdW
SciTegic.value.DoubleValue
2.236

@<SCITEGIC>MOL_PROPERTY
VdW6
SciTegic.value.DoubleValue
-8.936

@<SCITEGIC>MOL_PROPERTY
VdW12
SciTegic.value.DoubleValue
11.172

@<SCITEGIC>MOL_PROPERTY
Bond
SciTegic.value.DoubleValue
0.223

@<SCITEGIC>MOL_PROPERTY
Angle
SciTegic.value.DoubleValue
2.457

@<SCITEGIC>MOL_PROPERTY
Pdih
SciTegic.value.DoubleValue
9.228

@<SCITEGIC>MOL_PROPERTY
Idih
SciTegic.value.DoubleValue
0.000

@<SCITEGIC>MOL_PROPERTY
Tether
SciTegic.value.DoubleValue
0.000

@<TRIPOS>MOLECULE
guest-5_confgen4.mol2 : confsearch ligand conformer 51
          22          22           1
SMALL
USER_CHARGES
 
@<TRIPOS>ATOM
       1    C1      21.299106   20.625742   22.721368 C.3        1 MOL1        -0.1685
       2    H1      22.020829   21.403590   23.005902 H          1 MOL1         0.0832
       3    H2      21.705587   20.149571   21.818752 H          1 MOL1         0.0832
       4    C2      19.947485   21.314500   22.420021 C.3        1 MOL1        -0.1685
       5    H3      19.409914   21.492354   23.361381 H          1 MOL1         0.0832
       6    H4      20.142197   22.311353   22.001250 H          1 MOL1         0.0832
       7    C3      19.028960   20.554092   21.433100 C.3        1 MOL1        -0.1685
       8    H5      19.330555   20.796690   20.404945 H          1 MOL1         0.0832
       9    H6      18.008430   20.945378   21.544601 H          1 MOL1         0.0832
      10    C4      18.995907   19.012343   21.574725 C.3        1 MOL1        -0.1761
      11    H7      18.091216   18.648015   21.069483 H          1 MOL1         0.0832
      12    H8      19.840027   18.581338   21.021020 H          1 MOL1         0.0832
      13    C5      19.019519   18.491091   23.029143 C.3        1 MOL1         0.1218
      14    H9      18.469653   19.186952   23.678677 H          1 MOL1         0.0789
      15    C6      20.455939   18.303753   23.568196 C.3        1 MOL1        -0.1761
      16    H10     20.411267   17.704041   24.487153 H          1 MOL1         0.0832
      17    H11     21.042749   17.715754   22.850562 H          1 MOL1         0.0832
      18    C7      21.213118   19.614178   23.889416 C.3        1 MOL1        -0.1685
      19    H12     20.748478   20.099321   24.758709 H          1 MOL1         0.0832
      20    H13     22.233238   19.353069   24.202407 H          1 MOL1         0.0832
      21    O1      18.373183   17.225602   23.060761 O.3        1 MOL1        -0.5509
      22    H14     18.888719   16.636901   22.471853 H          1 MOL1         0.3779
@<TRIPOS>BOND
    1     1     2    1
    2     1     3    1
    3     1     4    1
    4     4     5    1
    5     4     6    1
    6     4     7    1
    7     7     8    1
    8     7     9    1
    9     7    10    1
   10    10    11    1
   11    10    12    1
   12    10    13    1
   13    13    14    1
   14    13    15    1
   15    15    16    1
   16    15    17    1
   17     1    18    1
   18    15    18    1
   19    18    19    1
   20    18    20    1
   21    13    21    1
   22    21    22    1
@<TRIPOS>SUBSTRUCTURE
       1 MOL1            1 RESIDUE      1      MOL     
@<SCITEGIC>MOL_PROPERTY
VConf Rank
SciTegic.value.IntegerValue
51

@<SCITEGIC>MOL_PROPERTY
Conf_Id
SciTegic.value.IntegerValue
76

@<SCITEGIC>MOL_PROPERTY
Delta U+W
SciTegic.value.DoubleValue
-3.175

@<SCITEGIC>MOL_PROPERTY
U+W
SciTegic.value.DoubleValue
3.248

@<SCITEGIC>MOL_PROPERTY
Grad RMS
SciTegic.value.DoubleValue
0.000000

@<SCITEGIC>MOL_PROPERTY
U
SciTegic.value.DoubleValue
5.336

@<SCITEGIC>MOL_PROPERTY
W
SciTegic.value.DoubleValue
-2.088

@<SCITEGIC>MOL_PROPERTY
W(PB)
SciTegic.value.DoubleValue
-4.098

@<SCITEGIC>MOL_PROPERTY
W(SA)
SciTegic.value.DoubleValue
2.010

@<SCITEGIC>MOL_PROPERTY
Valence
SciTegic.value.DoubleValue
12.390

@<SCITEGIC>MOL_PROPERTY
Coulomb
SciTegic.value.DoubleValue
-9.270

@<SCITEGIC>MOL_PROPERTY
VdW
SciTegic.value.DoubleValue
2.216

@<SCITEGIC>MOL_PROPERTY
VdW6
SciTegic.value.DoubleValue
-8.967

@<SCITEGIC>MOL_PROPERTY
VdW12
SciTegic.value.DoubleValue
11.183

@<SCITEGIC>MOL_PROPERTY
Bond
SciTegic.value.DoubleValue
0.218

@<SCITEGIC>MOL_PROPERTY
Angle
SciTegic.value.DoubleValue
2.426

@<SCITEGIC>MOL_PROPERTY
Pdih
SciTegic.value.DoubleValue
9.745

@<SCITEGIC>MOL_PROPERTY
Idih
SciTegic.value.DoubleValue
0.000

@<SCITEGIC>MOL_PROPERTY
Tether
SciTegic.value.DoubleValue
0.000

@<TRIPOS>MOLECULE
guest-5_confgen4.mol2 : confsearch ligand conformer 52
          22          22           1
SMALL
USER_CHARGES
 
@<TRIPOS>ATOM
       1    C1      19.466055   19.020678   24.380579 C.3        1 MOL1        -0.1685
       2    H1      18.851534   18.141892   24.619074 H          1 MOL1         0.0832
       3    H2      19.724178   19.475050   25.346878 H          1 MOL1         0.0832
       4    C2      18.596226   20.015345   23.575153 C.3        1 MOL1        -0.1685
       5    H3      17.924594   19.458200   22.908086 H          1 MOL1         0.0832
       6    H4      17.939014   20.540597   24.281528 H          1 MOL1         0.0832
       7    C3      19.387246   21.059733   22.753519 C.3        1 MOL1        -0.1685
       8    H5      20.283739   21.390127   23.295714 H          1 MOL1         0.0832
       9    H6      18.756063   21.950956   22.636813 H          1 MOL1         0.0832
      10    C4      19.755869   20.553645   21.335749 C.3        1 MOL1        -0.1761
      11    H7      18.854236   20.164176   20.845969 H          1 MOL1         0.0832
      12    H8      20.073422   21.411869   20.729097 H          1 MOL1         0.0832
      13    C5      20.865877   19.480636   21.260696 C.3        1 MOL1         0.1218
      14    H9      20.874932   19.105645   20.227063 H          1 MOL1         0.0789
      15    C6      20.662773   18.256152   22.187990 C.3        1 MOL1        -0.1761
      16    H10     19.697606   17.780755   21.970440 H          1 MOL1         0.0832
      17    H11     21.425203   17.511637   21.924962 H          1 MOL1         0.0832
      18    C7      20.777572   18.552741   23.705908 C.3        1 MOL1        -0.1685
      19    H12     21.114541   17.642218   24.219543 H          1 MOL1         0.0832
      20    H13     21.565080   19.296270   23.886011 H          1 MOL1         0.0832
      21    O1      22.126324   20.089467   21.522653 O.3        1 MOL1        -0.5509
      22    H14     22.790135   19.370020   21.516802 H          1 MOL1         0.3779
@<TRIPOS>BOND
    1     1     2    1
    2     1     3    1
    3     1     4    1
    4     4     5    1
    5     4     6    1
    6     4     7    1
    7     7     8    1
    8     7     9    1
    9     7    10    1
   10    10    11    1
   11    10    12    1
   12    10    13    1
   13    13    14    1
   14    13    15    1
   15    15    16    1
   16    15    17    1
   17     1    18    1
   18    15    18    1
   19    18    19    1
   20    18    20    1
   21    13    21    1
   22    21    22    1
@<TRIPOS>SUBSTRUCTURE
       1 MOL1            1 RESIDUE      1      MOL     
@<SCITEGIC>MOL_PROPERTY
VConf Rank
SciTegic.value.IntegerValue
52

@<SCITEGIC>MOL_PROPERTY
Conf_Id
SciTegic.value.IntegerValue
95

@<SCITEGIC>MOL_PROPERTY
Delta U+W
SciTegic.value.DoubleValue
-2.289

@<SCITEGIC>MOL_PROPERTY
U+W
SciTegic.value.DoubleValue
4.134

@<SCITEGIC>MOL_PROPERTY
Grad RMS
SciTegic.value.DoubleValue
0.000000

@<SCITEGIC>MOL_PROPERTY
U
SciTegic.value.DoubleValue
6.373

@<SCITEGIC>MOL_PROPERTY
W
SciTegic.value.DoubleValue
-2.240

@<SCITEGIC>MOL_PROPERTY
W(PB)
SciTegic.value.DoubleValue
-4.254

@<SCITEGIC>MOL_PROPERTY
W(SA)
SciTegic.value.DoubleValue
2.015

@<SCITEGIC>MOL_PROPERTY
Valence
SciTegic.value.DoubleValue
12.093

@<SCITEGIC>MOL_PROPERTY
Coulomb
SciTegic.value.DoubleValue
-8.058

@<SCITEGIC>MOL_PROPERTY
VdW
SciTegic.value.DoubleValue
2.339

@<SCITEGIC>MOL_PROPERTY
VdW6
SciTegic.value.DoubleValue
-9.683

@<SCITEGIC>MOL_PROPERTY
VdW12
SciTegic.value.DoubleValue
12.022

@<SCITEGIC>MOL_PROPERTY
Bond
SciTegic.value.DoubleValue
0.268

@<SCITEGIC>MOL_PROPERTY
Angle
SciTegic.value.DoubleValue
3.005

@<SCITEGIC>MOL_PROPERTY
Pdih
SciTegic.value.DoubleValue
8.820

@<SCITEGIC>MOL_PROPERTY
Idih
SciTegic.value.DoubleValue
0.000

@<SCITEGIC>MOL_PROPERTY
Tether
SciTegic.value.DoubleValue
0.000

@<TRIPOS>MOLECULE
guest-5_confgen4.mol2 : confsearch ligand conformer 53
          22          22           1
SMALL
USER_CHARGES
 
@<TRIPOS>ATOM
       1    C1      21.795212   19.041763   23.201912 C.3        1 MOL1        -0.1685
       2    H1      22.125349   18.019468   23.431424 H          1 MOL1         0.0832
       3    H2      22.694218   19.668778   23.275604 H          1 MOL1         0.0832
       4    C2      20.787539   19.480906   24.290984 C.3        1 MOL1        -0.1685
       5    H3      20.175890   18.619715   24.592172 H          1 MOL1         0.0832
       6    H4      21.357576   19.763308   25.186588 H          1 MOL1         0.0832
       7    C3      19.863055   20.655084   23.893300 C.3        1 MOL1        -0.1685
       8    H5      20.403825   21.392583   23.284628 H          1 MOL1         0.0832
       9    H6      19.563452   21.178279   24.811413 H          1 MOL1         0.0832
      10    C4      18.572916   20.183339   23.176147 C.3        1 MOL1        -0.1761
      11    H7      18.103637   19.387214   23.768481 H          1 MOL1         0.0832
      12    H8      17.850090   21.009475   23.174708 H          1 MOL1         0.0832
      13    C5      18.744067   19.683392   21.723392 C.3        1 MOL1         0.1218
      14    H9      17.786761   19.229650   21.428802 H          1 MOL1         0.0789
      15    C6      19.838348   18.605007   21.523467 C.3        1 MOL1        -0.1761
      16    H10     19.632588   17.738984   22.165461 H          1 MOL1         0.0832
      17    H11     19.750195   18.241030   20.491682 H          1 MOL1         0.0832
      18    C7      21.294105   19.094709   21.738880 C.3        1 MOL1        -0.1685
      19    H12     21.967526   18.477491   21.129155 H          1 MOL1         0.0832
      20    H13     21.405761   20.115637   21.350476 H          1 MOL1         0.0832
      21    O1      18.990160   20.794935   20.867353 O.3        1 MOL1        -0.5509
      22    H14     18.284064   21.449069   21.045463 H          1 MOL1         0.3779
@<TRIPOS>BOND
    1     1     2    1
    2     1     3    1
    3     1     4    1
    4     4     5    1
    5     4     6    1
    6     4     7    1
    7     7     8    1
    8     7     9    1
    9     7    10    1
   10    10    11    1
   11    10    12    1
   12    10    13    1
   13    13    14    1
   14    13    15    1
   15    15    16    1
   16    15    17    1
   17     1    18    1
   18    15    18    1
   19    18    19    1
   20    18    20    1
   21    13    21    1
   22    21    22    1
@<TRIPOS>SUBSTRUCTURE
       1 MOL1            1 RESIDUE      1      MOL     
@<SCITEGIC>MOL_PROPERTY
VConf Rank
SciTegic.value.IntegerValue
53

@<SCITEGIC>MOL_PROPERTY
Conf_Id
SciTegic.value.IntegerValue
41

@<SCITEGIC>MOL_PROPERTY
Delta U+W
SciTegic.value.DoubleValue
-2.114

@<SCITEGIC>MOL_PROPERTY
U+W
SciTegic.value.DoubleValue
4.310

@<SCITEGIC>MOL_PROPERTY
Grad RMS
SciTegic.value.DoubleValue
0.000000

@<SCITEGIC>MOL_PROPERTY
U
SciTegic.value.DoubleValue
6.598

@<SCITEGIC>MOL_PROPERTY
W
SciTegic.value.DoubleValue
-2.289

@<SCITEGIC>MOL_PROPERTY
W(PB)
SciTegic.value.DoubleValue
-4.294

@<SCITEGIC>MOL_PROPERTY
W(SA)
SciTegic.value.DoubleValue
2.005

@<SCITEGIC>MOL_PROPERTY
Valence
SciTegic.value.DoubleValue
12.082

@<SCITEGIC>MOL_PROPERTY
Coulomb
SciTegic.value.DoubleValue
-7.801

@<SCITEGIC>MOL_PROPERTY
VdW
SciTegic.value.DoubleValue
2.317

@<SCITEGIC>MOL_PROPERTY
VdW6
SciTegic.value.DoubleValue
-9.658

@<SCITEGIC>MOL_PROPERTY
VdW12
SciTegic.value.DoubleValue
11.975

@<SCITEGIC>MOL_PROPERTY
Bond
SciTegic.value.DoubleValue
0.267

@<SCITEGIC>MOL_PROPERTY
Angle
SciTegic.value.DoubleValue
3.051

@<SCITEGIC>MOL_PROPERTY
Pdih
SciTegic.value.DoubleValue
8.764

@<SCITEGIC>MOL_PROPERTY
Idih
SciTegic.value.DoubleValue
0.000

@<SCITEGIC>MOL_PROPERTY
Tether
SciTegic.value.DoubleValue
0.000

@<TRIPOS>MOLECULE
guest-5_confgen4.mol2 : confsearch ligand conformer 54
          22          22           1
SMALL
USER_CHARGES
 
@<TRIPOS>ATOM
       1    C1      19.614954   21.134093   22.629139 C.3        1 MOL1        -0.1685
       2    H1      19.200924   22.110868   22.344468 H          1 MOL1         0.0832
       3    H2      19.786251   21.176407   23.713594 H          1 MOL1         0.0832
       4    C2      20.948732   20.945956   21.872153 C.3        1 MOL1        -0.1685
       5    H3      20.749716   20.843738   20.796734 H          1 MOL1         0.0832
       6    H4      21.546548   21.860879   21.982109 H          1 MOL1         0.0832
       7    C3      21.800228   19.751146   22.354445 C.3        1 MOL1        -0.1685
       8    H5      22.176504   19.955184   23.365719 H          1 MOL1         0.0832
       9    H6      22.691595   19.691258   21.715693 H          1 MOL1         0.0832
      10    C4      21.083116   18.374226   22.322411 C.3        1 MOL1        -0.1761
      11    H7      20.639483   18.203472   21.333325 H          1 MOL1         0.0832
      12    H8      21.849658   17.597789   22.441339 H          1 MOL1         0.0832
      13    C5      20.018582   18.137389   23.424548 C.3        1 MOL1         0.1218
      14    H9      19.846815   17.052125   23.468991 H          1 MOL1         0.0789
      15    C6      18.630967   18.783539   23.175237 C.3        1 MOL1        -0.1761
      16    H10     17.981882   18.025827   22.717391 H          1 MOL1         0.0832
      17    H11     18.165368   19.015366   24.142163 H          1 MOL1         0.0832
      18    C7      18.573319   20.047568   22.282038 C.3        1 MOL1        -0.1685
      19    H12     18.671124   19.762714   21.225768 H          1 MOL1         0.0832
      20    H13     17.568504   20.480921   22.378119 H          1 MOL1         0.0832
      21    O1      20.517112   18.547113   24.695183 O.3        1 MOL1        -0.5509
      22    H14     19.822505   18.338053   25.352240 H          1 MOL1         0.3779
@<TRIPOS>BOND
    1     1     2    1
    2     1     3    1
    3     1     4    1
    4     4     5    1
    5     4     6    1
    6     4     7    1
    7     7     8    1
    8     7     9    1
    9     7    10    1
   10    10    11    1
   11    10    12    1
   12    10    13    1
   13    13    14    1
   14    13    15    1
   15    15    16    1
   16    15    17    1
   17     1    18    1
   18    15    18    1
   19    18    19    1
   20    18    20    1
   21    13    21    1
   22    21    22    1
@<TRIPOS>SUBSTRUCTURE
       1 MOL1            1 RESIDUE      1      MOL     
@<SCITEGIC>MOL_PROPERTY
VConf Rank
SciTegic.value.IntegerValue
54

@<SCITEGIC>MOL_PROPERTY
Conf_Id
SciTegic.value.IntegerValue
104

@<SCITEGIC>MOL_PROPERTY
Delta U+W
SciTegic.value.DoubleValue
-1.172

@<SCITEGIC>MOL_PROPERTY
U+W
SciTegic.value.DoubleValue
5.252

@<SCITEGIC>MOL_PROPERTY
Grad RMS
SciTegic.value.DoubleValue
0.000000

@<SCITEGIC>MOL_PROPERTY
U
SciTegic.value.DoubleValue
7.482

@<SCITEGIC>MOL_PROPERTY
W
SciTegic.value.DoubleValue
-2.230

@<SCITEGIC>MOL_PROPERTY
W(PB)
SciTegic.value.DoubleValue
-4.220

@<SCITEGIC>MOL_PROPERTY
W(SA)
SciTegic.value.DoubleValue
1.990

@<SCITEGIC>MOL_PROPERTY
Valence
SciTegic.value.DoubleValue
12.309

@<SCITEGIC>MOL_PROPERTY
Coulomb
SciTegic.value.DoubleValue
-7.084

@<SCITEGIC>MOL_PROPERTY
VdW
SciTegic.value.DoubleValue
2.258

@<SCITEGIC>MOL_PROPERTY
VdW6
SciTegic.value.DoubleValue
-9.770

@<SCITEGIC>MOL_PROPERTY
VdW12
SciTegic.value.DoubleValue
12.028

@<SCITEGIC>MOL_PROPERTY
Bond
SciTegic.value.DoubleValue
0.284

@<SCITEGIC>MOL_PROPERTY
Angle
SciTegic.value.DoubleValue
3.491

@<SCITEGIC>MOL_PROPERTY
Pdih
SciTegic.value.DoubleValue
8.535

@<SCITEGIC>MOL_PROPERTY
Idih
SciTegic.value.DoubleValue
0.000

@<SCITEGIC>MOL_PROPERTY
Tether
SciTegic.value.DoubleValue
0.000

@<TRIPOS>MOLECULE
guest-5_confgen4.mol2 : confsearch ligand conformer 55
          22          22           1
SMALL
USER_CHARGES
 
@<TRIPOS>ATOM
       1    C1      21.471099   19.798662   21.843790 C.3        1 MOL1        -0.1685
       2    H1      21.950305   18.928302   22.312105 H          1 MOL1         0.0832
       3    H2      22.226441   20.237319   21.177473 H          1 MOL1         0.0832
       4    C2      21.100764   20.861654   22.903216 C.3        1 MOL1        -0.1685
       5    H3      22.005368   21.429705   23.160622 H          1 MOL1         0.0832
       6    H4      20.420363   21.598504   22.456625 H          1 MOL1         0.0832
       7    C3      20.496473   20.314173   24.221082 C.3        1 MOL1        -0.1685
       8    H5      19.880811   21.102784   24.675360 H          1 MOL1         0.0832
       9    H6      21.315347   20.138407   24.932053 H          1 MOL1         0.0832
      10    C4      19.664784   19.005842   24.132958 C.3        1 MOL1        -0.1761
      11    H7      20.348646   18.149075   24.076038 H          1 MOL1         0.0832
      12    H8      19.126746   18.881852   25.081717 H          1 MOL1         0.0832
      13    C5      18.638847   18.899488   22.981385 C.3        1 MOL1         0.1218
      14    H9      17.892074   18.148636   23.277074 H          1 MOL1         0.0789
      15    C6      19.269298   18.406046   21.659525 C.3        1 MOL1        -0.1761
      16    H10     19.768092   17.445875   21.844826 H          1 MOL1         0.0832
      17    H11     18.457166   18.185838   20.954405 H          1 MOL1         0.0832
      18    C7      20.269727   19.366370   20.969806 C.3        1 MOL1        -0.1685
      19    H12     20.658302   18.861253   20.075056 H          1 MOL1         0.0832
      20    H13     19.739176   20.254280   20.600199 H          1 MOL1         0.0832
      21    O1      17.986763   20.143518   22.778047 O.3        1 MOL1        -0.5509
      22    H14     18.717118   20.769937   22.603498 H          1 MOL1         0.3779
@<TRIPOS>BOND
    1     1     2    1
    2     1     3    1
    3     1     4    1
    4     4     5    1
    5     4     6    1
    6     4     7    1
    7     7     8    1
    8     7     9    1
    9     7    10    1
   10    10    11    1
   11    10    12    1
   12    10    13    1
   13    13    14    1
   14    13    15    1
   15    15    16    1
   16    15    17    1
   17     1    18    1
   18    15    18    1
   19    18    19    1
   20    18    20    1
   21    13    21    1
   22    21    22    1
@<TRIPOS>SUBSTRUCTURE
       1 MOL1            1 RESIDUE      1      MOL     
@<SCITEGIC>MOL_PROPERTY
VConf Rank
SciTegic.value.IntegerValue
55

@<SCITEGIC>MOL_PROPERTY
Conf_Id
SciTegic.value.IntegerValue
99

@<SCITEGIC>MOL_PROPERTY
Delta U+W
SciTegic.value.DoubleValue
-3.852

@<SCITEGIC>MOL_PROPERTY
U+W
SciTegic.value.DoubleValue
2.572

@<SCITEGIC>MOL_PROPERTY
Grad RMS
SciTegic.value.DoubleValue
0.000000

@<SCITEGIC>MOL_PROPERTY
U
SciTegic.value.DoubleValue
3.922

@<SCITEGIC>MOL_PROPERTY
W
SciTegic.value.DoubleValue
-1.350

@<SCITEGIC>MOL_PROPERTY
W(PB)
SciTegic.value.DoubleValue
-3.345

@<SCITEGIC>MOL_PROPERTY
W(SA)
SciTegic.value.DoubleValue
1.995

@<SCITEGIC>MOL_PROPERTY
Valence
SciTegic.value.DoubleValue
12.571

@<SCITEGIC>MOL_PROPERTY
Coulomb
SciTegic.value.DoubleValue
-10.581

@<SCITEGIC>MOL_PROPERTY
VdW
SciTegic.value.DoubleValue
1.932

@<SCITEGIC>MOL_PROPERTY
VdW6
SciTegic.value.DoubleValue
-10.483

@<SCITEGIC>MOL_PROPERTY
VdW12
SciTegic.value.DoubleValue
12.415

@<SCITEGIC>MOL_PROPERTY
Bond
SciTegic.value.DoubleValue
0.268

@<SCITEGIC>MOL_PROPERTY
Angle
SciTegic.value.DoubleValue
3.728

@<SCITEGIC>MOL_PROPERTY
Pdih
SciTegic.value.DoubleValue
8.575

@<SCITEGIC>MOL_PROPERTY
Idih
SciTegic.value.DoubleValue
0.000

@<SCITEGIC>MOL_PROPERTY
Tether
SciTegic.value.DoubleValue
0.000

@<TRIPOS>MOLECULE
guest-5_confgen4.mol2 : confsearch ligand conformer 56
          22          22           1
SMALL
USER_CHARGES
 
@<TRIPOS>ATOM
       1    C1      21.467564   19.605461   21.760627 C.3        1 MOL1        -0.1685
       2    H1      22.132670   19.168298   21.003123 H          1 MOL1         0.0832
       3    H2      21.961126   20.537556   22.066651 H          1 MOL1         0.0832
       4    C2      21.396506   18.616865   22.961243 C.3        1 MOL1        -0.1685
       5    H3      22.030986   17.751884   22.723472 H          1 MOL1         0.0832
       6    H4      21.855391   19.068448   23.850935 H          1 MOL1         0.0832
       7    C3      19.985744   18.083491   23.319033 C.3        1 MOL1        -0.1685
       8    H5      20.098429   17.262136   24.039730 H          1 MOL1         0.0832
       9    H6      19.531985   17.615541   22.436597 H          1 MOL1         0.0832
      10    C4      19.000379   19.118912   23.928777 C.3        1 MOL1        -0.1761
      11    H7      17.977526   18.754120   23.769283 H          1 MOL1         0.0832
      12    H8      19.138167   19.128912   25.018232 H          1 MOL1         0.0832
      13    C5      19.080526   20.584515   23.435073 C.3        1 MOL1         0.1218
      14    H9      18.178487   21.094895   23.801969 H          1 MOL1         0.0789
      15    C6      19.120609   20.789388   21.900614 C.3        1 MOL1        -0.1761
      16    H10     18.111918   20.622267   21.501423 H          1 MOL1         0.0832
      17    H11     19.334281   21.850299   21.714043 H          1 MOL1         0.0832
      18    C7      20.118761   19.934565   21.071294 C.3        1 MOL1        -0.1685
      19    H12     19.631741   19.006124   20.748224 H          1 MOL1         0.0832
      20    H13     20.329303   20.474865   20.138303 H          1 MOL1         0.0832
      21    O1      20.196674   21.227116   24.030490 O.3        1 MOL1        -0.5509
      22    H14     20.967097   20.740244   23.675052 H          1 MOL1         0.3779
@<TRIPOS>BOND
    1     1     2    1
    2     1     3    1
    3     1     4    1
    4     4     5    1
    5     4     6    1
    6     4     7    1
    7     7     8    1
    8     7     9    1
    9     7    10    1
   10    10    11    1
   11    10    12    1
   12    10    13    1
   13    13    14    1
   14    13    15    1
   15    15    16    1
   16    15    17    1
   17     1    18    1
   18    15    18    1
   19    18    19    1
   20    18    20    1
   21    13    21    1
   22    21    22    1
@<TRIPOS>SUBSTRUCTURE
       1 MOL1            1 RESIDUE      1      MOL     
@<SCITEGIC>MOL_PROPERTY
VConf Rank
SciTegic.value.IntegerValue
56

@<SCITEGIC>MOL_PROPERTY
Conf_Id
SciTegic.value.IntegerValue
98

@<SCITEGIC>MOL_PROPERTY
Delta U+W
SciTegic.value.DoubleValue
0.930

@<SCITEGIC>MOL_PROPERTY
U+W
SciTegic.value.DoubleValue
7.353

@<SCITEGIC>MOL_PROPERTY
Grad RMS
SciTegic.value.DoubleValue
0.000000

@<SCITEGIC>MOL_PROPERTY
U
SciTegic.value.DoubleValue
8.455

@<SCITEGIC>MOL_PROPERTY
W
SciTegic.value.DoubleValue
-1.102

@<SCITEGIC>MOL_PROPERTY
W(PB)
SciTegic.value.DoubleValue
-3.101

@<SCITEGIC>MOL_PROPERTY
W(SA)
SciTegic.value.DoubleValue
2.000

@<SCITEGIC>MOL_PROPERTY
Valence
SciTegic.value.DoubleValue
15.601

@<SCITEGIC>MOL_PROPERTY
Coulomb
SciTegic.value.DoubleValue
-10.573

@<SCITEGIC>MOL_PROPERTY
VdW
SciTegic.value.DoubleValue
3.427

@<SCITEGIC>MOL_PROPERTY
VdW6
SciTegic.value.DoubleValue
-11.360

@<SCITEGIC>MOL_PROPERTY
VdW12
SciTegic.value.DoubleValue
14.787

@<SCITEGIC>MOL_PROPERTY
Bond
SciTegic.value.DoubleValue
0.471

@<SCITEGIC>MOL_PROPERTY
Angle
SciTegic.value.DoubleValue
5.445

@<SCITEGIC>MOL_PROPERTY
Pdih
SciTegic.value.DoubleValue
9.685

@<SCITEGIC>MOL_PROPERTY
Idih
SciTegic.value.DoubleValue
0.000

@<SCITEGIC>MOL_PROPERTY
Tether
SciTegic.value.DoubleValue
0.000

@<TRIPOS>MOLECULE
guest-5_confgen4.mol2 : confsearch ligand conformer 57
          22          22           1
SMALL
USER_CHARGES
 
@<TRIPOS>ATOM
       1    C1      21.091636   18.211010   22.439271 C.3        1 MOL1        -0.1685
       2    H1      21.489457   18.439204   23.436490 H          1 MOL1         0.0832
       3    H2      21.633251   17.311964   22.115107 H          1 MOL1         0.0832
       4    C2      21.427508   19.367747   21.463920 C.3        1 MOL1        -0.1685
       5    H3      22.520807   19.472427   21.439178 H          1 MOL1         0.0832
       6    H4      21.132547   19.086061   20.443982 H          1 MOL1         0.0832
       7    C3      20.816722   20.754688   21.807404 C.3        1 MOL1        -0.1685
       8    H5      19.959810   20.961032   21.153081 H          1 MOL1         0.0832
       9    H6      21.556720   21.526559   21.555906 H          1 MOL1         0.0832
      10    C4      20.392118   20.937050   23.288676 C.3        1 MOL1        -0.1761
      11    H7      21.233079   20.668030   23.939859 H          1 MOL1         0.0832
      12    H8      20.226253   22.007454   23.470642 H          1 MOL1         0.0832
      13    C5      19.126664   20.147860   23.735526 C.3        1 MOL1         0.1218
      14    H9      19.349668   19.667539   24.699180 H          1 MOL1         0.0789
      15    C6      18.628440   19.056262   22.755502 C.3        1 MOL1        -0.1761
      16    H10     17.671576   18.660886   23.120394 H          1 MOL1         0.0832
      17    H11     18.397675   19.509845   21.784112 H          1 MOL1         0.0832
      18    C7      19.589603   17.858736   22.550802 C.3        1 MOL1        -0.1685
      19    H12     19.464664   17.155935   23.385833 H          1 MOL1         0.0832
      20    H13     19.279419   17.313445   21.649073 H          1 MOL1         0.0832
      21    O1      18.061067   21.072647   23.921130 O.3        1 MOL1        -0.5509
      22    H14     17.296568   20.559421   24.256270 H          1 MOL1         0.3779
@<TRIPOS>BOND
    1     1     2    1
    2     1     3    1
    3     1     4    1
    4     4     5    1
    5     4     6    1
    6     4     7    1
    7     7     8    1
    8     7     9    1
    9     7    10    1
   10    10    11    1
   11    10    12    1
   12    10    13    1
   13    13    14    1
   14    13    15    1
   15    15    16    1
   16    15    17    1
   17     1    18    1
   18    15    18    1
   19    18    19    1
   20    18    20    1
   21    13    21    1
   22    21    22    1
@<TRIPOS>SUBSTRUCTURE
       1 MOL1            1 RESIDUE      1      MOL     
@<SCITEGIC>MOL_PROPERTY
VConf Rank
SciTegic.value.IntegerValue
57

@<SCITEGIC>MOL_PROPERTY
Conf_Id
SciTegic.value.IntegerValue
141

@<SCITEGIC>MOL_PROPERTY
Delta U+W
SciTegic.value.DoubleValue
0.000

@<SCITEGIC>MOL_PROPERTY
U+W
SciTegic.value.DoubleValue
6.423

@<SCITEGIC>MOL_PROPERTY
Grad RMS
SciTegic.value.DoubleValue
0.000000

@<SCITEGIC>MOL_PROPERTY
U
SciTegic.value.DoubleValue
8.781

@<SCITEGIC>MOL_PROPERTY
W
SciTegic.value.DoubleValue
-2.358

@<SCITEGIC>MOL_PROPERTY
W(PB)
SciTegic.value.DoubleValue
-4.373

@<SCITEGIC>MOL_PROPERTY
W(SA)
SciTegic.value.DoubleValue
2.015

@<SCITEGIC>MOL_PROPERTY
Valence
SciTegic.value.DoubleValue
13.328

@<SCITEGIC>MOL_PROPERTY
Coulomb
SciTegic.value.DoubleValue
-8.387

@<SCITEGIC>MOL_PROPERTY
VdW
SciTegic.value.DoubleValue
3.840

@<SCITEGIC>MOL_PROPERTY
VdW6
SciTegic.value.DoubleValue
-9.744

@<SCITEGIC>MOL_PROPERTY
VdW12
SciTegic.value.DoubleValue
13.584

@<SCITEGIC>MOL_PROPERTY
Bond
SciTegic.value.DoubleValue
0.436

@<SCITEGIC>MOL_PROPERTY
Angle
SciTegic.value.DoubleValue
3.478

@<SCITEGIC>MOL_PROPERTY
Pdih
SciTegic.value.DoubleValue
9.415

@<SCITEGIC>MOL_PROPERTY
Idih
SciTegic.value.DoubleValue
0.000

@<SCITEGIC>MOL_PROPERTY
Tether
SciTegic.value.DoubleValue
0.000

@<TRIPOS>MOLECULE
guest-5_confgen4.mol2 : confsearch ligand conformer 58
          22          22           1
SMALL
USER_CHARGES
 
@<TRIPOS>ATOM
       1    C1      20.932637   19.442603   24.118662 C.3        1 MOL1        -0.1685
       2    H1      20.546287   18.419729   24.223881 H          1 MOL1         0.0832
       3    H2      21.645174   19.584335   24.942741 H          1 MOL1         0.0832
       4    C2      19.799902   20.482852   24.293158 C.3        1 MOL1        -0.1685
       5    H3      19.468605   20.467049   25.340463 H          1 MOL1         0.0832
       6    H4      20.201822   21.490933   24.122539 H          1 MOL1         0.0832
       7    C3      18.561911   20.266868   23.392569 C.3        1 MOL1        -0.1685
       8    H5      17.866705   21.100736   23.560434 H          1 MOL1         0.0832
       9    H6      18.028639   19.362503   23.716148 H          1 MOL1         0.0832
      10    C4      18.864031   20.172828   21.876963 C.3        1 MOL1        -0.1761
      11    H7      17.908531   20.254549   21.342337 H          1 MOL1         0.0832
      12    H8      19.471275   21.026630   21.549438 H          1 MOL1         0.0832
      13    C5      19.545493   18.842277   21.485976 C.3        1 MOL1         0.1218
      14    H9      19.168836   18.053651   22.153091 H          1 MOL1         0.0789
      15    C6      21.088356   18.859763   21.578520 C.3        1 MOL1        -0.1761
      16    H10     21.430785   17.817086   21.598906 H          1 MOL1         0.0832
      17    H11     21.502640   19.294418   20.658980 H          1 MOL1         0.0832
      18    C7      21.702523   19.608738   22.787603 C.3        1 MOL1        -0.1685
      19    H12     22.731366   19.248281   22.923158 H          1 MOL1         0.0832
      20    H13     21.794404   20.677253   22.549815 H          1 MOL1         0.0832
      21    O1      19.187860   18.520104   20.147499 O.3        1 MOL1        -0.5509
      22    H14     18.211280   18.439323   20.127890 H          1 MOL1         0.3779
@<TRIPOS>BOND
    1     1     2    1
    2     1     3    1
    3     1     4    1
    4     4     5    1
    5     4     6    1
    6     4     7    1
    7     7     8    1
    8     7     9    1
    9     7    10    1
   10    10    11    1
   11    10    12    1
   12    10    13    1
   13    13    14    1
   14    13    15    1
   15    15    16    1
   16    15    17    1
   17     1    18    1
   18    15    18    1
   19    18    19    1
   20    18    20    1
   21    13    21    1
   22    21    22    1
@<TRIPOS>SUBSTRUCTURE
       1 MOL1            1 RESIDUE      1      MOL     
@<SCITEGIC>MOL_PROPERTY
VConf Rank
SciTegic.value.IntegerValue
58

@<SCITEGIC>MOL_PROPERTY
Conf_Id
SciTegic.value.IntegerValue
144

@<SCITEGIC>MOL_PROPERTY
Delta U+W
SciTegic.value.DoubleValue
-3.291

@<SCITEGIC>MOL_PROPERTY
U+W
SciTegic.value.DoubleValue
3.132

@<SCITEGIC>MOL_PROPERTY
Grad RMS
SciTegic.value.DoubleValue
0.000000

@<SCITEGIC>MOL_PROPERTY
U
SciTegic.value.DoubleValue
5.411

@<SCITEGIC>MOL_PROPERTY
W
SciTegic.value.DoubleValue
-2.279

@<SCITEGIC>MOL_PROPERTY
W(PB)
SciTegic.value.DoubleValue
-4.300

@<SCITEGIC>MOL_PROPERTY
W(SA)
SciTegic.value.DoubleValue
2.021

@<SCITEGIC>MOL_PROPERTY
Valence
SciTegic.value.DoubleValue
11.909

@<SCITEGIC>MOL_PROPERTY
Coulomb
SciTegic.value.DoubleValue
-8.733

@<SCITEGIC>MOL_PROPERTY
VdW
SciTegic.value.DoubleValue
2.236

@<SCITEGIC>MOL_PROPERTY
VdW6
SciTegic.value.DoubleValue
-8.936

@<SCITEGIC>MOL_PROPERTY
VdW12
SciTegic.value.DoubleValue
11.172

@<SCITEGIC>MOL_PROPERTY
Bond
SciTegic.value.DoubleValue
0.223

@<SCITEGIC>MOL_PROPERTY
Angle
SciTegic.value.DoubleValue
2.457

@<SCITEGIC>MOL_PROPERTY
Pdih
SciTegic.value.DoubleValue
9.228

@<SCITEGIC>MOL_PROPERTY
Idih
SciTegic.value.DoubleValue
0.000

@<SCITEGIC>MOL_PROPERTY
Tether
SciTegic.value.DoubleValue
0.000

@<TRIPOS>MOLECULE
guest-5_confgen4.mol2 : confsearch ligand conformer 59
          22          22           1
SMALL
USER_CHARGES
 
@<TRIPOS>ATOM
       1    C1      20.019588   17.900853   22.136426 C.3        1 MOL1        -0.1685
       2    H1      20.046947   16.977754   21.541422 H          1 MOL1         0.0832
       3    H2      20.114572   17.589141   23.185471 H          1 MOL1         0.0832
       4    C2      18.657639   18.590205   21.887502 C.3        1 MOL1        -0.1685
       5    H3      18.706955   19.171799   20.956862 H          1 MOL1         0.0832
       6    H4      17.895891   17.818583   21.710478 H          1 MOL1         0.0832
       7    C3      18.159918   19.495676   23.040029 C.3        1 MOL1        -0.1685
       8    H5      17.656352   18.872790   23.791926 H          1 MOL1         0.0832
       9    H6      17.385561   20.164461   22.639886 H          1 MOL1         0.0832
      10    C4      19.236340   20.344825   23.760032 C.3        1 MOL1        -0.1761
      11    H7      18.722411   21.153863   24.296504 H          1 MOL1         0.0832
      12    H8      19.718948   19.734130   24.534006 H          1 MOL1         0.0832
      13    C5      20.318374   20.945651   22.834934 C.3        1 MOL1         0.1218
      14    H9      19.871638   21.201776   21.863700 H          1 MOL1         0.0789
      15    C6      21.512539   19.988156   22.620107 C.3        1 MOL1        -0.1761
      16    H10     22.342603   20.555000   22.177601 H          1 MOL1         0.0832
      17    H11     21.874394   19.629901   23.592630 H          1 MOL1         0.0832
      18    C7      21.224006   18.772750   21.707281 C.3        1 MOL1        -0.1685
      19    H12     21.074040   19.119722   20.675755 H          1 MOL1         0.0832
      20    H13     22.122493   18.141160   21.682749 H          1 MOL1         0.0832
      21    O1      20.814194   22.132609   23.439504 O.3        1 MOL1        -0.5509
      22    H14     21.200670   21.864820   24.298623 H          1 MOL1         0.3779
@<TRIPOS>BOND
    1     1     2    1
    2     1     3    1
    3     1     4    1
    4     4     5    1
    5     4     6    1
    6     4     7    1
    7     7     8    1
    8     7     9    1
    9     7    10    1
   10    10    11    1
   11    10    12    1
   12    10    13    1
   13    13    14    1
   14    13    15    1
   15    15    16    1
   16    15    17    1
   17     1    18    1
   18    15    18    1
   19    18    19    1
   20    18    20    1
   21    13    21    1
   22    21    22    1
@<TRIPOS>SUBSTRUCTURE
       1 MOL1            1 RESIDUE      1      MOL     
@<SCITEGIC>MOL_PROPERTY
VConf Rank
SciTegic.value.IntegerValue
59

@<SCITEGIC>MOL_PROPERTY
Conf_Id
SciTegic.value.IntegerValue
76

@<SCITEGIC>MOL_PROPERTY
Delta U+W
SciTegic.value.DoubleValue
-3.175

@<SCITEGIC>MOL_PROPERTY
U+W
SciTegic.value.DoubleValue
3.248

@<SCITEGIC>MOL_PROPERTY
Grad RMS
SciTegic.value.DoubleValue
0.000000

@<SCITEGIC>MOL_PROPERTY
U
SciTegic.value.DoubleValue
5.336

@<SCITEGIC>MOL_PROPERTY
W
SciTegic.value.DoubleValue
-2.088

@<SCITEGIC>MOL_PROPERTY
W(PB)
SciTegic.value.DoubleValue
-4.098

@<SCITEGIC>MOL_PROPERTY
W(SA)
SciTegic.value.DoubleValue
2.010

@<SCITEGIC>MOL_PROPERTY
Valence
SciTegic.value.DoubleValue
12.390

@<SCITEGIC>MOL_PROPERTY
Coulomb
SciTegic.value.DoubleValue
-9.270

@<SCITEGIC>MOL_PROPERTY
VdW
SciTegic.value.DoubleValue
2.216

@<SCITEGIC>MOL_PROPERTY
VdW6
SciTegic.value.DoubleValue
-8.967

@<SCITEGIC>MOL_PROPERTY
VdW12
SciTegic.value.DoubleValue
11.183

@<SCITEGIC>MOL_PROPERTY
Bond
SciTegic.value.DoubleValue
0.218

@<SCITEGIC>MOL_PROPERTY
Angle
SciTegic.value.DoubleValue
2.426

@<SCITEGIC>MOL_PROPERTY
Pdih
SciTegic.value.DoubleValue
9.745

@<SCITEGIC>MOL_PROPERTY
Idih
SciTegic.value.DoubleValue
0.000

@<SCITEGIC>MOL_PROPERTY
Tether
SciTegic.value.DoubleValue
0.000

@<TRIPOS>MOLECULE
guest-5_confgen4.mol2 : confsearch ligand conformer 60
          22          22           1
SMALL
USER_CHARGES
 
@<TRIPOS>ATOM
       1    C1      21.428895   18.526892   21.910045 C.3        1 MOL1        -0.1685
       2    H1      21.607956   17.451635   22.046215 H          1 MOL1         0.0832
       3    H2      22.160205   18.858264   21.160249 H          1 MOL1         0.0832
       4    C2      21.726505   19.240650   23.250437 C.3        1 MOL1        -0.1685
       5    H3      21.406804   18.601845   24.084823 H          1 MOL1         0.0832
       6    H4      22.816556   19.331983   23.351586 H          1 MOL1         0.0832
       7    C3      21.089013   20.641487   23.401435 C.3        1 MOL1        -0.1685
       8    H5      21.102114   21.184891   22.446774 H          1 MOL1         0.0832
       9    H6      21.710201   21.226086   24.093288 H          1 MOL1         0.0832
      10    C4      19.654428   20.588081   23.985553 C.3        1 MOL1        -0.1761
      11    H7      19.659214   19.979580   24.898907 H          1 MOL1         0.0832
      12    H8      19.368972   21.598597   24.306155 H          1 MOL1         0.0832
      13    C5      18.551520   20.058848   23.040776 C.3        1 MOL1         0.1218
      14    H9      17.650685   19.914531   23.654590 H          1 MOL1         0.0789
      15    C6      18.861679   18.701844   22.360461 C.3        1 MOL1        -0.1761
      16    H10     19.066409   17.940815   23.124529 H          1 MOL1         0.0832
      17    H11     17.947864   18.370685   21.850498 H          1 MOL1         0.0832
      18    C7      20.012782   18.733304   21.321621 C.3        1 MOL1        -0.1685
      19    H12     19.838877   17.944580   20.577247 H          1 MOL1         0.0832
      20    H13     19.986303   19.675356   20.758346 H          1 MOL1         0.0832
      21    O1      18.263412   21.045945   22.055556 O.3        1 MOL1        -0.5509
      22    H14     17.601826   20.651910   21.451136 H          1 MOL1         0.3779
@<TRIPOS>BOND
    1     1     2    1
    2     1     3    1
    3     1     4    1
    4     4     5    1
    5     4     6    1
    6     4     7    1
    7     7     8    1
    8     7     9    1
    9     7    10    1
   10    10    11    1
   11    10    12    1
   12    10    13    1
   13    13    14    1
   14    13    15    1
   15    15    16    1
   16    15    17    1
   17     1    18    1
   18    15    18    1
   19    18    19    1
   20    18    20    1
   21    13    21    1
   22    21    22    1
@<TRIPOS>SUBSTRUCTURE
       1 MOL1            1 RESIDUE      1      MOL     
@<SCITEGIC>MOL_PROPERTY
VConf Rank
SciTegic.value.IntegerValue
60

@<SCITEGIC>MOL_PROPERTY
Conf_Id
SciTegic.value.IntegerValue
95

@<SCITEGIC>MOL_PROPERTY
Delta U+W
SciTegic.value.DoubleValue
-2.289

@<SCITEGIC>MOL_PROPERTY
U+W
SciTegic.value.DoubleValue
4.134

@<SCITEGIC>MOL_PROPERTY
Grad RMS
SciTegic.value.DoubleValue
0.000000

@<SCITEGIC>MOL_PROPERTY
U
SciTegic.value.DoubleValue
6.373

@<SCITEGIC>MOL_PROPERTY
W
SciTegic.value.DoubleValue
-2.240

@<SCITEGIC>MOL_PROPERTY
W(PB)
SciTegic.value.DoubleValue
-4.254

@<SCITEGIC>MOL_PROPERTY
W(SA)
SciTegic.value.DoubleValue
2.015

@<SCITEGIC>MOL_PROPERTY
Valence
SciTegic.value.DoubleValue
12.093

@<SCITEGIC>MOL_PROPERTY
Coulomb
SciTegic.value.DoubleValue
-8.058

@<SCITEGIC>MOL_PROPERTY
VdW
SciTegic.value.DoubleValue
2.339

@<SCITEGIC>MOL_PROPERTY
VdW6
SciTegic.value.DoubleValue
-9.683

@<SCITEGIC>MOL_PROPERTY
VdW12
SciTegic.value.DoubleValue
12.022

@<SCITEGIC>MOL_PROPERTY
Bond
SciTegic.value.DoubleValue
0.268

@<SCITEGIC>MOL_PROPERTY
Angle
SciTegic.value.DoubleValue
3.005

@<SCITEGIC>MOL_PROPERTY
Pdih
SciTegic.value.DoubleValue
8.820

@<SCITEGIC>MOL_PROPERTY
Idih
SciTegic.value.DoubleValue
0.000

@<SCITEGIC>MOL_PROPERTY
Tether
SciTegic.value.DoubleValue
0.000

@<TRIPOS>MOLECULE
guest-5_confgen4.mol2 : confsearch ligand conformer 61
          22          22           1
SMALL
USER_CHARGES
 
@<TRIPOS>ATOM
       1    C1      21.477324   20.054227   23.898575 C.3        1 MOL1        -0.1685
       2    H1      22.544441   19.820425   23.783025 H          1 MOL1         0.0832
       3    H2      21.397172   20.626499   24.832850 H          1 MOL1         0.0832
       4    C2      20.704799   18.723096   24.058646 C.3        1 MOL1        -0.1685
       5    H3      21.168266   17.952884   23.427417 H          1 MOL1         0.0832
       6    H4      20.838892   18.375146   25.091966 H          1 MOL1         0.0832
       7    C3      19.191978   18.801836   23.747697 C.3        1 MOL1        -0.1685
       8    H5      18.768070   19.753735   24.095562 H          1 MOL1         0.0832
       9    H6      18.685179   18.014430   24.321781 H          1 MOL1         0.0832
      10    C4      18.877336   18.569853   22.248199 C.3        1 MOL1        -0.1761
      11    H7      19.385821   17.657074   21.911786 H          1 MOL1         0.0832
      12    H8      17.804817   18.361074   22.142858 H          1 MOL1         0.0832
      13    C5      19.245569   19.723707   21.287595 C.3        1 MOL1         0.1218
      14    H9      19.125243   19.336648   20.265437 H          1 MOL1         0.0789
      15    C6      20.700759   20.241463   21.408767 C.3        1 MOL1        -0.1761
      16    H10     21.406534   19.416958   21.245788 H          1 MOL1         0.0832
      17    H11     20.864722   20.944367   20.581802 H          1 MOL1         0.0832
      18    C7      21.032254   20.972860   22.735648 C.3        1 MOL1        -0.1685
      19    H12     21.838608   21.694627   22.548397 H          1 MOL1         0.0832
      20    H13     20.171872   21.576003   23.054367 H          1 MOL1         0.0832
      21    O1      18.327429   20.797979   21.466069 O.3        1 MOL1        -0.5509
      22    H14     17.429253   20.414924   21.397260 H          1 MOL1         0.3779
@<TRIPOS>BOND
    1     1     2    1
    2     1     3    1
    3     1     4    1
    4     4     5    1
    5     4     6    1
    6     4     7    1
    7     7     8    1
    8     7     9    1
    9     7    10    1
   10    10    11    1
   11    10    12    1
   12    10    13    1
   13    13    14    1
   14    13    15    1
   15    15    16    1
   16    15    17    1
   17     1    18    1
   18    15    18    1
   19    18    19    1
   20    18    20    1
   21    13    21    1
   22    21    22    1
@<TRIPOS>SUBSTRUCTURE
       1 MOL1            1 RESIDUE      1      MOL     
@<SCITEGIC>MOL_PROPERTY
VConf Rank
SciTegic.value.IntegerValue
61

@<SCITEGIC>MOL_PROPERTY
Conf_Id
SciTegic.value.IntegerValue
41

@<SCITEGIC>MOL_PROPERTY
Delta U+W
SciTegic.value.DoubleValue
-2.114

@<SCITEGIC>MOL_PROPERTY
U+W
SciTegic.value.DoubleValue
4.310

@<SCITEGIC>MOL_PROPERTY
Grad RMS
SciTegic.value.DoubleValue
0.000000

@<SCITEGIC>MOL_PROPERTY
U
SciTegic.value.DoubleValue
6.598

@<SCITEGIC>MOL_PROPERTY
W
SciTegic.value.DoubleValue
-2.289

@<SCITEGIC>MOL_PROPERTY
W(PB)
SciTegic.value.DoubleValue
-4.294

@<SCITEGIC>MOL_PROPERTY
W(SA)
SciTegic.value.DoubleValue
2.005

@<SCITEGIC>MOL_PROPERTY
Valence
SciTegic.value.DoubleValue
12.082

@<SCITEGIC>MOL_PROPERTY
Coulomb
SciTegic.value.DoubleValue
-7.801

@<SCITEGIC>MOL_PROPERTY
VdW
SciTegic.value.DoubleValue
2.317

@<SCITEGIC>MOL_PROPERTY
VdW6
SciTegic.value.DoubleValue
-9.658

@<SCITEGIC>MOL_PROPERTY
VdW12
SciTegic.value.DoubleValue
11.975

@<SCITEGIC>MOL_PROPERTY
Bond
SciTegic.value.DoubleValue
0.267

@<SCITEGIC>MOL_PROPERTY
Angle
SciTegic.value.DoubleValue
3.051

@<SCITEGIC>MOL_PROPERTY
Pdih
SciTegic.value.DoubleValue
8.764

@<SCITEGIC>MOL_PROPERTY
Idih
SciTegic.value.DoubleValue
0.000

@<SCITEGIC>MOL_PROPERTY
Tether
SciTegic.value.DoubleValue
0.000

@<TRIPOS>MOLECULE
guest-5_confgen4.mol2 : confsearch ligand conformer 62
          22          22           1
SMALL
USER_CHARGES
 
@<TRIPOS>ATOM
       1    C1      20.803588   20.019676   21.290695 C.3        1 MOL1        -0.1685
       2    H1      21.058878   20.479570   20.326396 H          1 MOL1         0.0832
       3    H2      21.748604   19.659017   21.719703 H          1 MOL1         0.0832
       4    C2      19.843872   18.840758   21.014138 C.3        1 MOL1        -0.1685
       5    H3      18.884152   19.226974   20.644872 H          1 MOL1         0.0832
       6    H4      20.258894   18.234769   20.197380 H          1 MOL1         0.0832
       7    C3      19.595141   17.914863   22.224953 C.3        1 MOL1        -0.1685
       8    H5      20.516517   17.365764   22.460421 H          1 MOL1         0.0832
       9    H6      18.866704   17.150663   21.922456 H          1 MOL1         0.0832
      10    C4      19.059091   18.623517   23.498391 C.3        1 MOL1        -0.1761
      11    H7      18.182807   19.235043   23.248550 H          1 MOL1         0.0832
      12    H8      18.693036   17.846464   24.181600 H          1 MOL1         0.0832
      13    C5      20.088170   19.475435   24.285324 C.3        1 MOL1         0.1218
      14    H9      19.665024   19.634414   25.287796 H          1 MOL1         0.0789
      15    C6      20.378609   20.886573   23.711324 C.3        1 MOL1        -0.1761
      16    H10     19.736836   21.604980   24.237708 H          1 MOL1         0.0832
      17    H11     21.405948   21.173940   23.971064 H          1 MOL1         0.0832
      18    C7      20.172640   21.104132   22.191737 C.3        1 MOL1        -0.1685
      19    H12     19.100736   21.194462   21.969752 H          1 MOL1         0.0832
      20    H13     20.610437   22.076897   21.929551 H          1 MOL1         0.0832
      21    O1      21.310932   18.760476   24.442189 O.3        1 MOL1        -0.5509
      22    H14     21.903273   19.327243   24.976808 H          1 MOL1         0.3779
@<TRIPOS>BOND
    1     1     2    1
    2     1     3    1
    3     1     4    1
    4     4     5    1
    5     4     6    1
    6     4     7    1
    7     7     8    1
    8     7     9    1
    9     7    10    1
   10    10    11    1
   11    10    12    1
   12    10    13    1
   13    13    14    1
   14    13    15    1
   15    15    16    1
   16    15    17    1
   17     1    18    1
   18    15    18    1
   19    18    19    1
   20    18    20    1
   21    13    21    1
   22    21    22    1
@<TRIPOS>SUBSTRUCTURE
       1 MOL1            1 RESIDUE      1      MOL     
@<SCITEGIC>MOL_PROPERTY
VConf Rank
SciTegic.value.IntegerValue
62

@<SCITEGIC>MOL_PROPERTY
Conf_Id
SciTegic.value.IntegerValue
104

@<SCITEGIC>MOL_PROPERTY
Delta U+W
SciTegic.value.DoubleValue
-1.172

@<SCITEGIC>MOL_PROPERTY
U+W
SciTegic.value.DoubleValue
5.252

@<SCITEGIC>MOL_PROPERTY
Grad RMS
SciTegic.value.DoubleValue
0.000000

@<SCITEGIC>MOL_PROPERTY
U
SciTegic.value.DoubleValue
7.482

@<SCITEGIC>MOL_PROPERTY
W
SciTegic.value.DoubleValue
-2.230

@<SCITEGIC>MOL_PROPERTY
W(PB)
SciTegic.value.DoubleValue
-4.220

@<SCITEGIC>MOL_PROPERTY
W(SA)
SciTegic.value.DoubleValue
1.990

@<SCITEGIC>MOL_PROPERTY
Valence
SciTegic.value.DoubleValue
12.309

@<SCITEGIC>MOL_PROPERTY
Coulomb
SciTegic.value.DoubleValue
-7.084

@<SCITEGIC>MOL_PROPERTY
VdW
SciTegic.value.DoubleValue
2.258

@<SCITEGIC>MOL_PROPERTY
VdW6
SciTegic.value.DoubleValue
-9.770

@<SCITEGIC>MOL_PROPERTY
VdW12
SciTegic.value.DoubleValue
12.028

@<SCITEGIC>MOL_PROPERTY
Bond
SciTegic.value.DoubleValue
0.284

@<SCITEGIC>MOL_PROPERTY
Angle
SciTegic.value.DoubleValue
3.491

@<SCITEGIC>MOL_PROPERTY
Pdih
SciTegic.value.DoubleValue
8.535

@<SCITEGIC>MOL_PROPERTY
Idih
SciTegic.value.DoubleValue
0.000

@<SCITEGIC>MOL_PROPERTY
Tether
SciTegic.value.DoubleValue
0.000

@<TRIPOS>MOLECULE
guest-5_confgen4.mol2 : confsearch ligand conformer 63
          22          22           1
SMALL
USER_CHARGES
 
@<TRIPOS>ATOM
       1    C1      18.498202   19.716309   23.157037 C.3        1 MOL1        -0.1685
       2    H1      18.101400   19.464538   22.164241 H          1 MOL1         0.0832
       3    H2      17.622812   19.907469   23.792717 H          1 MOL1         0.0832
       4    C2      19.336275   21.014111   23.103862 C.3        1 MOL1        -0.1685
       5    H3      18.651528   21.873385   23.099569 H          1 MOL1         0.0832
       6    H4      19.911286   21.114017   24.033764 H          1 MOL1         0.0832
       7    C3      20.278399   21.155457   21.881529 C.3        1 MOL1        -0.1685
       8    H5      21.105364   21.825104   22.155421 H          1 MOL1         0.0832
       9    H6      19.734349   21.676773   21.082049 H          1 MOL1         0.0832
      10    C4      20.859884   19.848938   21.276479 C.3        1 MOL1        -0.1761
      11    H7      20.095694   19.373318   20.648183 H          1 MOL1         0.0832
      12    H8      21.668004   20.125298   20.586864 H          1 MOL1         0.0832
      13    C5      21.412044   18.798562   22.267342 C.3        1 MOL1         0.1218
      14    H9      22.114512   18.161605   21.710829 H          1 MOL1         0.0789
      15    C6      20.313755   17.867678   22.829022 C.3        1 MOL1        -0.1761
      16    H10     19.791362   17.393054   21.988248 H          1 MOL1         0.0832
      17    H11     20.803892   17.049198   23.372254 H          1 MOL1         0.0832
      18    C7      19.267304   18.519899   23.766220 C.3        1 MOL1        -0.1685
      19    H12     18.538029   17.747259   24.045322 H          1 MOL1         0.0832
      20    H13     19.747680   18.825119   24.705666 H          1 MOL1         0.0832
      21    O1      22.106781   19.432509   23.330179 O.3        1 MOL1        -0.5509
      22    H14     21.445152   20.037921   23.720062 H          1 MOL1         0.3779
@<TRIPOS>BOND
    1     1     2    1
    2     1     3    1
    3     1     4    1
    4     4     5    1
    5     4     6    1
    6     4     7    1
    7     7     8    1
    8     7     9    1
    9     7    10    1
   10    10    11    1
   11    10    12    1
   12    10    13    1
   13    13    14    1
   14    13    15    1
   15    15    16    1
   16    15    17    1
   17     1    18    1
   18    15    18    1
   19    18    19    1
   20    18    20    1
   21    13    21    1
   22    21    22    1
@<TRIPOS>SUBSTRUCTURE
       1 MOL1            1 RESIDUE      1      MOL     
@<SCITEGIC>MOL_PROPERTY
VConf Rank
SciTegic.value.IntegerValue
63

@<SCITEGIC>MOL_PROPERTY
Conf_Id
SciTegic.value.IntegerValue
99

@<SCITEGIC>MOL_PROPERTY
Delta U+W
SciTegic.value.DoubleValue
-3.852

@<SCITEGIC>MOL_PROPERTY
U+W
SciTegic.value.DoubleValue
2.572

@<SCITEGIC>MOL_PROPERTY
Grad RMS
SciTegic.value.DoubleValue
0.000000

@<SCITEGIC>MOL_PROPERTY
U
SciTegic.value.DoubleValue
3.922

@<SCITEGIC>MOL_PROPERTY
W
SciTegic.value.DoubleValue
-1.350

@<SCITEGIC>MOL_PROPERTY
W(PB)
SciTegic.value.DoubleValue
-3.345

@<SCITEGIC>MOL_PROPERTY
W(SA)
SciTegic.value.DoubleValue
1.995

@<SCITEGIC>MOL_PROPERTY
Valence
SciTegic.value.DoubleValue
12.571

@<SCITEGIC>MOL_PROPERTY
Coulomb
SciTegic.value.DoubleValue
-10.581

@<SCITEGIC>MOL_PROPERTY
VdW
SciTegic.value.DoubleValue
1.932

@<SCITEGIC>MOL_PROPERTY
VdW6
SciTegic.value.DoubleValue
-10.483

@<SCITEGIC>MOL_PROPERTY
VdW12
SciTegic.value.DoubleValue
12.415

@<SCITEGIC>MOL_PROPERTY
Bond
SciTegic.value.DoubleValue
0.268

@<SCITEGIC>MOL_PROPERTY
Angle
SciTegic.value.DoubleValue
3.728

@<SCITEGIC>MOL_PROPERTY
Pdih
SciTegic.value.DoubleValue
8.575

@<SCITEGIC>MOL_PROPERTY
Idih
SciTegic.value.DoubleValue
0.000

@<SCITEGIC>MOL_PROPERTY
Tether
SciTegic.value.DoubleValue
0.000

@<TRIPOS>MOLECULE
guest-5_confgen4.mol2 : confsearch ligand conformer 64
          22          22           1
SMALL
USER_CHARGES
 
@<TRIPOS>ATOM
       1    C1      18.532245   19.115577   23.092545 C.3        1 MOL1        -0.1685
       2    H1      17.479857   19.333049   23.321619 H          1 MOL1         0.0832
       3    H2      18.615222   18.022236   23.153988 H          1 MOL1         0.0832
       4    C2      19.408144   19.782735   24.193250 C.3        1 MOL1        -0.1685
       5    H3      18.734863   20.288833   24.898833 H          1 MOL1         0.0832
       6    H4      19.917021   19.013714   24.789660 H          1 MOL1         0.0832
       7    C3      20.443317   20.824899   23.698213 C.3        1 MOL1        -0.1685
       8    H5      20.848925   21.352431   24.572237 H          1 MOL1         0.0832
       9    H6      19.935141   21.604445   23.117150 H          1 MOL1         0.0832
      10    C4      21.641613   20.261568   22.884841 C.3        1 MOL1        -0.1761
      11    H7      22.058255   21.076520   22.279033 H          1 MOL1         0.0832
      12    H8      22.438944   19.985929   23.587893 H          1 MOL1         0.0832
      13    C5      21.391789   19.043299   21.962036 C.3        1 MOL1         0.1218
      14    H9      22.277181   18.943695   21.317881 H          1 MOL1         0.0789
      15    C6      20.161933   19.134062   21.025361 C.3        1 MOL1        -0.1761
      16    H10     20.403760   19.815567   20.199642 H          1 MOL1         0.0832
      17    H11     20.028169   18.149001   20.558713 H          1 MOL1         0.0832
      18    C7      18.803542   19.575649   21.637385 C.3        1 MOL1        -0.1685
      19    H12     18.703549   20.666012   21.568990 H          1 MOL1         0.0832
      20    H13     18.002724   19.184272   20.995326 H          1 MOL1         0.0832
      21    O1      21.308220   17.862583   22.744448 O.3        1 MOL1        -0.5509
      22    H14     20.511456   17.999828   23.295143 H          1 MOL1         0.3779
@<TRIPOS>BOND
    1     1     2    1
    2     1     3    1
    3     1     4    1
    4     4     5    1
    5     4     6    1
    6     4     7    1
    7     7     8    1
    8     7     9    1
    9     7    10    1
   10    10    11    1
   11    10    12    1
   12    10    13    1
   13    13    14    1
   14    13    15    1
   15    15    16    1
   16    15    17    1
   17     1    18    1
   18    15    18    1
   19    18    19    1
   20    18    20    1
   21    13    21    1
   22    21    22    1
@<TRIPOS>SUBSTRUCTURE
       1 MOL1            1 RESIDUE      1      MOL     
@<SCITEGIC>MOL_PROPERTY
VConf Rank
SciTegic.value.IntegerValue
64

@<SCITEGIC>MOL_PROPERTY
Conf_Id
SciTegic.value.IntegerValue
98

@<SCITEGIC>MOL_PROPERTY
Delta U+W
SciTegic.value.DoubleValue
0.930

@<SCITEGIC>MOL_PROPERTY
U+W
SciTegic.value.DoubleValue
7.353

@<SCITEGIC>MOL_PROPERTY
Grad RMS
SciTegic.value.DoubleValue
0.000000

@<SCITEGIC>MOL_PROPERTY
U
SciTegic.value.DoubleValue
8.455

@<SCITEGIC>MOL_PROPERTY
W
SciTegic.value.DoubleValue
-1.102

@<SCITEGIC>MOL_PROPERTY
W(PB)
SciTegic.value.DoubleValue
-3.101

@<SCITEGIC>MOL_PROPERTY
W(SA)
SciTegic.value.DoubleValue
2.000

@<SCITEGIC>MOL_PROPERTY
Valence
SciTegic.value.DoubleValue
15.601

@<SCITEGIC>MOL_PROPERTY
Coulomb
SciTegic.value.DoubleValue
-10.573

@<SCITEGIC>MOL_PROPERTY
VdW
SciTegic.value.DoubleValue
3.427

@<SCITEGIC>MOL_PROPERTY
VdW6
SciTegic.value.DoubleValue
-11.360

@<SCITEGIC>MOL_PROPERTY
VdW12
SciTegic.value.DoubleValue
14.787

@<SCITEGIC>MOL_PROPERTY
Bond
SciTegic.value.DoubleValue
0.471

@<SCITEGIC>MOL_PROPERTY
Angle
SciTegic.value.DoubleValue
5.445

@<SCITEGIC>MOL_PROPERTY
Pdih
SciTegic.value.DoubleValue
9.685

@<SCITEGIC>MOL_PROPERTY
Idih
SciTegic.value.DoubleValue
0.000

@<SCITEGIC>MOL_PROPERTY
Tether
SciTegic.value.DoubleValue
0.000

@<TRIPOS>MOLECULE
guest-5_confgen4.mol2 : confsearch ligand conformer 65
          22          22           1
SMALL
USER_CHARGES
 
@<TRIPOS>ATOM
       1    C1      19.484342   17.945296   22.270014 C.3        1 MOL1        -0.1685
       2    H1      20.542915   17.659633   22.219021 H          1 MOL1         0.0832
       3    H2      18.928914   17.013497   22.096918 H          1 MOL1         0.0832
       4    C2      19.153493   18.936654   21.125502 C.3        1 MOL1        -0.1685
       5    H3      19.382144   18.433651   20.175985 H          1 MOL1         0.0832
       6    H4      18.072233   19.129428   21.107108 H          1 MOL1         0.0832
       7    C3      19.913399   20.291864   21.149898 C.3        1 MOL1        -0.1685
       8    H5      19.251853   21.087765   21.515839 H          1 MOL1         0.0832
       9    H6      20.146749   20.572357   20.113796 H          1 MOL1         0.0832
      10    C4      21.228543   20.293035   21.973369 C.3        1 MOL1        -0.1761
      11    H7      21.858515   19.456384   21.646605 H          1 MOL1         0.0832
      12    H8      21.798939   21.194262   21.711019 H          1 MOL1         0.0832
      13    C5      21.062450   20.234243   23.520246 C.3        1 MOL1         0.1218
      14    H9      21.766872   19.484435   23.908376 H          1 MOL1         0.0789
      15    C6      19.645515   19.878476   24.035978 C.3        1 MOL1        -0.1761
      16    H10     19.626715   19.988461   25.128044 H          1 MOL1         0.0832
      17    H11     18.921737   20.613038   23.662946 H          1 MOL1         0.0832
      18    C7      19.153735   18.449741   23.694399 C.3        1 MOL1        -0.1685
      19    H12     19.585974   17.743079   24.415935 H          1 MOL1         0.0832
      20    H13     18.066726   18.409692   23.847628 H          1 MOL1         0.0832
      21    O1      21.405338   21.506020   24.058937 O.3        1 MOL1        -0.5509
      22    H14     21.348153   21.424792   25.033776 H          1 MOL1         0.3779
@<TRIPOS>BOND
    1     1     2    1
    2     1     3    1
    3     1     4    1
    4     4     5    1
    5     4     6    1
    6     4     7    1
    7     7     8    1
    8     7     9    1
    9     7    10    1
   10    10    11    1
   11    10    12    1
   12    10    13    1
   13    13    14    1
   14    13    15    1
   15    15    16    1
   16    15    17    1
   17     1    18    1
   18    15    18    1
   19    18    19    1
   20    18    20    1
   21    13    21    1
   22    21    22    1
@<TRIPOS>SUBSTRUCTURE
       1 MOL1            1 RESIDUE      1      MOL     
@<SCITEGIC>MOL_PROPERTY
VConf Rank
SciTegic.value.IntegerValue
65

@<SCITEGIC>MOL_PROPERTY
Conf_Id
SciTegic.value.IntegerValue
141

@<SCITEGIC>MOL_PROPERTY
Delta U+W
SciTegic.value.DoubleValue
0.000

@<SCITEGIC>MOL_PROPERTY
U+W
SciTegic.value.DoubleValue
6.423

@<SCITEGIC>MOL_PROPERTY
Grad RMS
SciTegic.value.DoubleValue
0.000000

@<SCITEGIC>MOL_PROPERTY
U
SciTegic.value.DoubleValue
8.781

@<SCITEGIC>MOL_PROPERTY
W
SciTegic.value.DoubleValue
-2.358

@<SCITEGIC>MOL_PROPERTY
W(PB)
SciTegic.value.DoubleValue
-4.373

@<SCITEGIC>MOL_PROPERTY
W(SA)
SciTegic.value.DoubleValue
2.015

@<SCITEGIC>MOL_PROPERTY
Valence
SciTegic.value.DoubleValue
13.328

@<SCITEGIC>MOL_PROPERTY
Coulomb
SciTegic.value.DoubleValue
-8.387

@<SCITEGIC>MOL_PROPERTY
VdW
SciTegic.value.DoubleValue
3.840

@<SCITEGIC>MOL_PROPERTY
VdW6
SciTegic.value.DoubleValue
-9.744

@<SCITEGIC>MOL_PROPERTY
VdW12
SciTegic.value.DoubleValue
13.584

@<SCITEGIC>MOL_PROPERTY
Bond
SciTegic.value.DoubleValue
0.436

@<SCITEGIC>MOL_PROPERTY
Angle
SciTegic.value.DoubleValue
3.478

@<SCITEGIC>MOL_PROPERTY
Pdih
SciTegic.value.DoubleValue
9.415

@<SCITEGIC>MOL_PROPERTY
Idih
SciTegic.value.DoubleValue
0.000

@<SCITEGIC>MOL_PROPERTY
Tether
SciTegic.value.DoubleValue
0.000

@<TRIPOS>MOLECULE
guest-5_confgen4.mol2 : confsearch ligand conformer 66
          22          22           1
SMALL
USER_CHARGES
 
@<TRIPOS>ATOM
       1    C1      20.907271   20.460976   21.440456 C.3        1 MOL1        -0.1685
       2    H1      21.569342   19.587645   21.365868 H          1 MOL1         0.0832
       3    H2      21.262213   21.176417   20.686092 H          1 MOL1         0.0832
       4    C2      21.036999   21.137176   22.826667 C.3        1 MOL1        -0.1685
       5    H3      22.033013   21.594655   22.900988 H          1 MOL1         0.0832
       6    H4      20.321289   21.967815   22.895044 H          1 MOL1         0.0832
       7    C3      20.846550   20.197101   24.039234 C.3        1 MOL1        -0.1685
       8    H5      20.894109   20.803931   24.953741 H          1 MOL1         0.0832
       9    H6      21.694110   19.500536   24.097537 H          1 MOL1         0.0832
      10    C4      19.520689   19.397578   24.045096 C.3        1 MOL1        -0.1761
      11    H7      19.401709   18.959427   25.044772 H          1 MOL1         0.0832
      12    H8      18.663501   20.068107   23.901509 H          1 MOL1         0.0832
      13    C5      19.503003   18.264033   22.995148 C.3        1 MOL1         0.1218
      14    H9      20.527174   17.879021   22.887066 H          1 MOL1         0.0789
      15    C6      18.995271   18.690253   21.598781 C.3        1 MOL1        -0.1761
      16    H10     19.323097   17.927956   20.880253 H          1 MOL1         0.0832
      17    H11     17.897463   18.662143   21.587126 H          1 MOL1         0.0832
      18    C7      19.449486   20.081290   21.090106 C.3        1 MOL1        -0.1685
      19    H12     19.328610   20.099530   19.998373 H          1 MOL1         0.0832
      20    H13     18.768740   20.853197   21.474103 H          1 MOL1         0.0832
      21    O1      18.666243   17.215085   23.467121 O.3        1 MOL1        -0.5509
      22    H14     19.049175   16.908636   24.315691 H          1 MOL1         0.3779
@<TRIPOS>BOND
    1     1     2    1
    2     1     3    1
    3     1     4    1
    4     4     5    1
    5     4     6    1
    6     4     7    1
    7     7     8    1
    8     7     9    1
    9     7    10    1
   10    10    11    1
   11    10    12    1
   12    10    13    1
   13    13    14    1
   14    13    15    1
   15    15    16    1
   16    15    17    1
   17     1    18    1
   18    15    18    1
   19    18    19    1
   20    18    20    1
   21    13    21    1
   22    21    22    1
@<TRIPOS>SUBSTRUCTURE
       1 MOL1            1 RESIDUE      1      MOL     
@<SCITEGIC>MOL_PROPERTY
VConf Rank
SciTegic.value.IntegerValue
66

@<SCITEGIC>MOL_PROPERTY
Conf_Id
SciTegic.value.IntegerValue
144

@<SCITEGIC>MOL_PROPERTY
Delta U+W
SciTegic.value.DoubleValue
-3.291

@<SCITEGIC>MOL_PROPERTY
U+W
SciTegic.value.DoubleValue
3.132

@<SCITEGIC>MOL_PROPERTY
Grad RMS
SciTegic.value.DoubleValue
0.000000

@<SCITEGIC>MOL_PROPERTY
U
SciTegic.value.DoubleValue
5.411

@<SCITEGIC>MOL_PROPERTY
W
SciTegic.value.DoubleValue
-2.279

@<SCITEGIC>MOL_PROPERTY
W(PB)
SciTegic.value.DoubleValue
-4.300

@<SCITEGIC>MOL_PROPERTY
W(SA)
SciTegic.value.DoubleValue
2.021

@<SCITEGIC>MOL_PROPERTY
Valence
SciTegic.value.DoubleValue
11.909

@<SCITEGIC>MOL_PROPERTY
Coulomb
SciTegic.value.DoubleValue
-8.733

@<SCITEGIC>MOL_PROPERTY
VdW
SciTegic.value.DoubleValue
2.236

@<SCITEGIC>MOL_PROPERTY
VdW6
SciTegic.value.DoubleValue
-8.936

@<SCITEGIC>MOL_PROPERTY
VdW12
SciTegic.value.DoubleValue
11.172

@<SCITEGIC>MOL_PROPERTY
Bond
SciTegic.value.DoubleValue
0.223

@<SCITEGIC>MOL_PROPERTY
Angle
SciTegic.value.DoubleValue
2.457

@<SCITEGIC>MOL_PROPERTY
Pdih
SciTegic.value.DoubleValue
9.228

@<SCITEGIC>MOL_PROPERTY
Idih
SciTegic.value.DoubleValue
0.000

@<SCITEGIC>MOL_PROPERTY
Tether
SciTegic.value.DoubleValue
0.000

@<TRIPOS>MOLECULE
guest-5_confgen4.mol2 : confsearch ligand conformer 67
          22          22           1
SMALL
USER_CHARGES
 
@<TRIPOS>ATOM
       1    C1      18.603036   18.782850   23.442638 C.3        1 MOL1        -0.1685
       2    H1      17.611325   18.387952   23.702360 H          1 MOL1         0.0832
       3    H2      19.271053   18.491137   24.264428 H          1 MOL1         0.0832
       4    C2      18.493441   20.322279   23.341527 C.3        1 MOL1        -0.1685
       5    H3      18.106257   20.596935   22.350857 H          1 MOL1         0.0832
       6    H4      17.738253   20.672623   24.058428 H          1 MOL1         0.0832
       7    C3      19.806816   21.093377   23.617892 C.3        1 MOL1        -0.1685
       8    H5      19.926479   21.218157   24.702801 H          1 MOL1         0.0832
       9    H6      19.699928   22.108313   23.211078 H          1 MOL1         0.0832
      10    C4      21.105177   20.460623   23.059304 C.3        1 MOL1        -0.1761
      11    H7      21.874838   21.243722   23.030192 H          1 MOL1         0.0832
      12    H8      21.473240   19.707808   23.768313 H          1 MOL1         0.0832
      13    C5      20.967998   19.820281   21.659754 C.3        1 MOL1         0.1218
      14    H9      20.249387   20.396695   21.059909 H          1 MOL1         0.0789
      15    C6      20.520720   18.342250   21.725652 C.3        1 MOL1        -0.1761
      16    H10     20.686479   17.880530   20.743068 H          1 MOL1         0.0832
      17    H11     21.162447   17.796340   22.429396 H          1 MOL1         0.0832
      18    C7      19.039432   18.120890   22.113594 C.3        1 MOL1        -0.1685
      19    H12     18.392945   18.476243   21.299527 H          1 MOL1         0.0832
      20    H13     18.861750   17.039248   22.186175 H          1 MOL1         0.0832
      21    O1      22.237526   19.863881   21.022096 O.3        1 MOL1        -0.5509
      22    H14     22.847546   19.343492   21.584440 H          1 MOL1         0.3779
@<TRIPOS>BOND
    1     1     2    1
    2     1     3    1
    3     1     4    1
    4     4     5    1
    5     4     6    1
    6     4     7    1
    7     7     8    1
    8     7     9    1
    9     7    10    1
   10    10    11    1
   11    10    12    1
   12    10    13    1
   13    13    14    1
   14    13    15    1
   15    15    16    1
   16    15    17    1
   17     1    18    1
   18    15    18    1
   19    18    19    1
   20    18    20    1
   21    13    21    1
   22    21    22    1
@<TRIPOS>SUBSTRUCTURE
       1 MOL1            1 RESIDUE      1      MOL     
@<SCITEGIC>MOL_PROPERTY
VConf Rank
SciTegic.value.IntegerValue
67

@<SCITEGIC>MOL_PROPERTY
Conf_Id
SciTegic.value.IntegerValue
76

@<SCITEGIC>MOL_PROPERTY
Delta U+W
SciTegic.value.DoubleValue
-3.175

@<SCITEGIC>MOL_PROPERTY
U+W
SciTegic.value.DoubleValue
3.248

@<SCITEGIC>MOL_PROPERTY
Grad RMS
SciTegic.value.DoubleValue
0.000000

@<SCITEGIC>MOL_PROPERTY
U
SciTegic.value.DoubleValue
5.336

@<SCITEGIC>MOL_PROPERTY
W
SciTegic.value.DoubleValue
-2.088

@<SCITEGIC>MOL_PROPERTY
W(PB)
SciTegic.value.DoubleValue
-4.098

@<SCITEGIC>MOL_PROPERTY
W(SA)
SciTegic.value.DoubleValue
2.010

@<SCITEGIC>MOL_PROPERTY
Valence
SciTegic.value.DoubleValue
12.390

@<SCITEGIC>MOL_PROPERTY
Coulomb
SciTegic.value.DoubleValue
-9.270

@<SCITEGIC>MOL_PROPERTY
VdW
SciTegic.value.DoubleValue
2.216

@<SCITEGIC>MOL_PROPERTY
VdW6
SciTegic.value.DoubleValue
-8.967

@<SCITEGIC>MOL_PROPERTY
VdW12
SciTegic.value.DoubleValue
11.183

@<SCITEGIC>MOL_PROPERTY
Bond
SciTegic.value.DoubleValue
0.218

@<SCITEGIC>MOL_PROPERTY
Angle
SciTegic.value.DoubleValue
2.426

@<SCITEGIC>MOL_PROPERTY
Pdih
SciTegic.value.DoubleValue
9.745

@<SCITEGIC>MOL_PROPERTY
Idih
SciTegic.value.DoubleValue
0.000

@<SCITEGIC>MOL_PROPERTY
Tether
SciTegic.value.DoubleValue
0.000

@<TRIPOS>MOLECULE
guest-5_confgen4.mol2 : confsearch ligand conformer 68
          22          22           1
SMALL
USER_CHARGES
 
@<TRIPOS>ATOM
       1    C1      18.675268   19.476205   23.940281 C.3        1 MOL1        -0.1685
       2    H1      17.889272   18.712004   24.010916 H          1 MOL1         0.0832
       3    H2      18.526094   20.137998   24.804337 H          1 MOL1         0.0832
       4    C2      18.446656   20.287066   22.642238 C.3        1 MOL1        -0.1685
       5    H3      18.080442   19.618075   21.851784 H          1 MOL1         0.0832
       6    H4      17.630282   20.998783   22.826020 H          1 MOL1         0.0832
       7    C3      19.682447   21.062052   22.128664 C.3        1 MOL1        -0.1685
       8    H5      20.266519   21.470230   22.964777 H          1 MOL1         0.0832
       9    H6      19.327316   21.927894   21.553779 H          1 MOL1         0.0832
      10    C4      20.578853   20.210604   21.194013 C.3        1 MOL1        -0.1761
      11    H7      19.956685   19.758118   20.411277 H          1 MOL1         0.0832
      12    H8      21.272633   20.880078   20.668762 H          1 MOL1         0.0832
      13    C5      21.411471   19.099077   21.872505 C.3        1 MOL1         0.1218
      14    H9      21.837476   18.485016   21.065941 H          1 MOL1         0.0789
      15    C6      20.611162   18.146782   22.796154 C.3        1 MOL1        -0.1761
      16    H10     19.794101   17.679997   22.230998 H          1 MOL1         0.0832
      17    H11     21.279603   17.324843   23.083191 H          1 MOL1         0.0832
      18    C7      20.056947   18.796135   24.090914 C.3        1 MOL1        -0.1685
      19    H12     19.968884   18.021881   24.864993 H          1 MOL1         0.0832
      20    H13     20.778920   19.522259   24.487070 H          1 MOL1         0.0832
      21    O1      22.486830   19.691669   22.593935 O.3        1 MOL1        -0.5509
      22    H14     22.954360   18.961043   23.047680 H          1 MOL1         0.3779
@<TRIPOS>BOND
    1     1     2    1
    2     1     3    1
    3     1     4    1
    4     4     5    1
    5     4     6    1
    6     4     7    1
    7     7     8    1
    8     7     9    1
    9     7    10    1
   10    10    11    1
   11    10    12    1
   12    10    13    1
   13    13    14    1
   14    13    15    1
   15    15    16    1
   16    15    17    1
   17     1    18    1
   18    15    18    1
   19    18    19    1
   20    18    20    1
   21    13    21    1
   22    21    22    1
@<TRIPOS>SUBSTRUCTURE
       1 MOL1            1 RESIDUE      1      MOL     
@<SCITEGIC>MOL_PROPERTY
VConf Rank
SciTegic.value.IntegerValue
68

@<SCITEGIC>MOL_PROPERTY
Conf_Id
SciTegic.value.IntegerValue
95

@<SCITEGIC>MOL_PROPERTY
Delta U+W
SciTegic.value.DoubleValue
-2.289

@<SCITEGIC>MOL_PROPERTY
U+W
SciTegic.value.DoubleValue
4.134

@<SCITEGIC>MOL_PROPERTY
Grad RMS
SciTegic.value.DoubleValue
0.000000

@<SCITEGIC>MOL_PROPERTY
U
SciTegic.value.DoubleValue
6.373

@<SCITEGIC>MOL_PROPERTY
W
SciTegic.value.DoubleValue
-2.240

@<SCITEGIC>MOL_PROPERTY
W(PB)
SciTegic.value.DoubleValue
-4.254

@<SCITEGIC>MOL_PROPERTY
W(SA)
SciTegic.value.DoubleValue
2.015

@<SCITEGIC>MOL_PROPERTY
Valence
SciTegic.value.DoubleValue
12.093

@<SCITEGIC>MOL_PROPERTY
Coulomb
SciTegic.value.DoubleValue
-8.058

@<SCITEGIC>MOL_PROPERTY
VdW
SciTegic.value.DoubleValue
2.339

@<SCITEGIC>MOL_PROPERTY
VdW6
SciTegic.value.DoubleValue
-9.683

@<SCITEGIC>MOL_PROPERTY
VdW12
SciTegic.value.DoubleValue
12.022

@<SCITEGIC>MOL_PROPERTY
Bond
SciTegic.value.DoubleValue
0.268

@<SCITEGIC>MOL_PROPERTY
Angle
SciTegic.value.DoubleValue
3.005

@<SCITEGIC>MOL_PROPERTY
Pdih
SciTegic.value.DoubleValue
8.820

@<SCITEGIC>MOL_PROPERTY
Idih
SciTegic.value.DoubleValue
0.000

@<SCITEGIC>MOL_PROPERTY
Tether
SciTegic.value.DoubleValue
0.000

@<TRIPOS>MOLECULE
guest-5_confgen4.mol2 : confsearch ligand conformer 69
          22          22           1
SMALL
USER_CHARGES
 
@<TRIPOS>ATOM
       1    C1      18.483450   19.210129   23.726800 C.3        1 MOL1        -0.1685
       2    H1      17.461518   19.043142   23.360022 H          1 MOL1         0.0832
       3    H2      18.440572   19.047906   24.812450 H          1 MOL1         0.0832
       4    C2      18.859911   20.686246   23.455352 C.3        1 MOL1        -0.1685
       5    H3      18.417912   21.007291   22.502438 H          1 MOL1         0.0832
       6    H4      18.379671   21.305890   24.224905 H          1 MOL1         0.0832
       7    C3      20.377309   20.984442   23.445441 C.3        1 MOL1        -0.1685
       8    H5      20.899248   20.393122   24.210124 H          1 MOL1         0.0832
       9    H6      20.519011   22.037217   23.724743 H          1 MOL1         0.0832
      10    C4      21.018160   20.775663   22.050080 C.3        1 MOL1        -0.1761
      11    H7      20.422917   21.309730   21.298180 H          1 MOL1         0.0832
      12    H8      22.002785   21.260837   22.039941 H          1 MOL1         0.0832
      13    C5      21.192899   19.309507   21.592274 C.3        1 MOL1         0.1218
      14    H9      21.489245   19.340457   20.533822 H          1 MOL1         0.0789
      15    C6      19.916360   18.436071   21.681109 C.3        1 MOL1        -0.1761
      16    H10     19.110378   18.889412   21.090040 H          1 MOL1         0.0832
      17    H11     20.143703   17.479136   21.193851 H          1 MOL1         0.0832
      18    C7      19.419861   18.138124   23.119913 C.3        1 MOL1        -0.1685
      19    H12     18.879651   17.181896   23.115480 H          1 MOL1         0.0832
      20    H13     20.278544   17.982618   23.786321 H          1 MOL1         0.0832
      21    O1      22.250714   18.706797   22.331641 O.3        1 MOL1        -0.5509
      22    H14     23.022515   19.304185   22.256566 H          1 MOL1         0.3779
@<TRIPOS>BOND
    1     1     2    1
    2     1     3    1
    3     1     4    1
    4     4     5    1
    5     4     6    1
    6     4     7    1
    7     7     8    1
    8     7     9    1
    9     7    10    1
   10    10    11    1
   11    10    12    1
   12    10    13    1
   13    13    14    1
   14    13    15    1
   15    15    16    1
   16    15    17    1
   17     1    18    1
   18    15    18    1
   19    18    19    1
   20    18    20    1
   21    13    21    1
   22    21    22    1
@<TRIPOS>SUBSTRUCTURE
       1 MOL1            1 RESIDUE      1      MOL     
@<SCITEGIC>MOL_PROPERTY
VConf Rank
SciTegic.value.IntegerValue
69

@<SCITEGIC>MOL_PROPERTY
Conf_Id
SciTegic.value.IntegerValue
41

@<SCITEGIC>MOL_PROPERTY
Delta U+W
SciTegic.value.DoubleValue
-2.114

@<SCITEGIC>MOL_PROPERTY
U+W
SciTegic.value.DoubleValue
4.310

@<SCITEGIC>MOL_PROPERTY
Grad RMS
SciTegic.value.DoubleValue
0.000000

@<SCITEGIC>MOL_PROPERTY
U
SciTegic.value.DoubleValue
6.598

@<SCITEGIC>MOL_PROPERTY
W
SciTegic.value.DoubleValue
-2.289

@<SCITEGIC>MOL_PROPERTY
W(PB)
SciTegic.value.DoubleValue
-4.294

@<SCITEGIC>MOL_PROPERTY
W(SA)
SciTegic.value.DoubleValue
2.005

@<SCITEGIC>MOL_PROPERTY
Valence
SciTegic.value.DoubleValue
12.082

@<SCITEGIC>MOL_PROPERTY
Coulomb
SciTegic.value.DoubleValue
-7.801

@<SCITEGIC>MOL_PROPERTY
VdW
SciTegic.value.DoubleValue
2.317

@<SCITEGIC>MOL_PROPERTY
VdW6
SciTegic.value.DoubleValue
-9.658

@<SCITEGIC>MOL_PROPERTY
VdW12
SciTegic.value.DoubleValue
11.975

@<SCITEGIC>MOL_PROPERTY
Bond
SciTegic.value.DoubleValue
0.267

@<SCITEGIC>MOL_PROPERTY
Angle
SciTegic.value.DoubleValue
3.051

@<SCITEGIC>MOL_PROPERTY
Pdih
SciTegic.value.DoubleValue
8.764

@<SCITEGIC>MOL_PROPERTY
Idih
SciTegic.value.DoubleValue
0.000

@<SCITEGIC>MOL_PROPERTY
Tether
SciTegic.value.DoubleValue
0.000

@<TRIPOS>MOLECULE
guest-5_confgen4.mol2 : confsearch ligand conformer 70
          22          22           1
SMALL
USER_CHARGES
 
@<TRIPOS>ATOM
       1    C1      20.830508   20.963547   22.279901 C.3        1 MOL1        -0.1685
       2    H1      21.289081   21.961101   22.246041 H          1 MOL1         0.0832
       3    H2      21.186231   20.430594   21.387377 H          1 MOL1         0.0832
       4    C2      19.296828   21.145203   22.232874 C.3        1 MOL1        -0.1685
       5    H3      18.954748   21.623354   23.160739 H          1 MOL1         0.0832
       6    H4      19.051352   21.846969   21.424278 H          1 MOL1         0.0832
       7    C3      18.500604   19.842381   22.000703 C.3        1 MOL1        -0.1685
       8    H5      18.685606   19.477772   20.981525 H          1 MOL1         0.0832
       9    H6      17.430953   20.088943   22.035030 H          1 MOL1         0.0832
      10    C4      18.773931   18.710124   23.027578 C.3        1 MOL1        -0.1761
      11    H7      18.664754   19.094193   24.049747 H          1 MOL1         0.0832
      12    H8      17.985126   17.956341   22.908489 H          1 MOL1         0.0832
      13    C5      20.132144   17.976278   22.883500 C.3        1 MOL1         0.1218
      14    H9      20.041484   17.032832   23.441145 H          1 MOL1         0.0789
      15    C6      21.363861   18.709896   23.474953 C.3        1 MOL1        -0.1761
      16    H10     21.532710   18.324822   24.488990 H          1 MOL1         0.0832
      17    H11     22.258036   18.423836   22.905661 H          1 MOL1         0.0832
      18    C7      21.308395   20.255024   23.566617 C.3        1 MOL1        -0.1685
      19    H12     20.676740   20.556043   24.413265 H          1 MOL1         0.0832
      20    H13     22.317772   20.613248   23.810567 H          1 MOL1         0.0832
      21    O1      20.378989   17.648160   21.518829 O.3        1 MOL1        -0.5509
      22    H14     21.224036   17.154970   21.495000 H          1 MOL1         0.3779
@<TRIPOS>BOND
    1     1     2    1
    2     1     3    1
    3     1     4    1
    4     4     5    1
    5     4     6    1
    6     4     7    1
    7     7     8    1
    8     7     9    1
    9     7    10    1
   10    10    11    1
   11    10    12    1
   12    10    13    1
   13    13    14    1
   14    13    15    1
   15    15    16    1
   16    15    17    1
   17     1    18    1
   18    15    18    1
   19    18    19    1
   20    18    20    1
   21    13    21    1
   22    21    22    1
@<TRIPOS>SUBSTRUCTURE
       1 MOL1            1 RESIDUE      1      MOL     
@<SCITEGIC>MOL_PROPERTY
VConf Rank
SciTegic.value.IntegerValue
70

@<SCITEGIC>MOL_PROPERTY
Conf_Id
SciTegic.value.IntegerValue
104

@<SCITEGIC>MOL_PROPERTY
Delta U+W
SciTegic.value.DoubleValue
-1.172

@<SCITEGIC>MOL_PROPERTY
U+W
SciTegic.value.DoubleValue
5.252

@<SCITEGIC>MOL_PROPERTY
Grad RMS
SciTegic.value.DoubleValue
0.000000

@<SCITEGIC>MOL_PROPERTY
U
SciTegic.value.DoubleValue
7.482

@<SCITEGIC>MOL_PROPERTY
W
SciTegic.value.DoubleValue
-2.230

@<SCITEGIC>MOL_PROPERTY
W(PB)
SciTegic.value.DoubleValue
-4.220

@<SCITEGIC>MOL_PROPERTY
W(SA)
SciTegic.value.DoubleValue
1.990

@<SCITEGIC>MOL_PROPERTY
Valence
SciTegic.value.DoubleValue
12.309

@<SCITEGIC>MOL_PROPERTY
Coulomb
SciTegic.value.DoubleValue
-7.084

@<SCITEGIC>MOL_PROPERTY
VdW
SciTegic.value.DoubleValue
2.258

@<SCITEGIC>MOL_PROPERTY
VdW6
SciTegic.value.DoubleValue
-9.770

@<SCITEGIC>MOL_PROPERTY
VdW12
SciTegic.value.DoubleValue
12.028

@<SCITEGIC>MOL_PROPERTY
Bond
SciTegic.value.DoubleValue
0.284

@<SCITEGIC>MOL_PROPERTY
Angle
SciTegic.value.DoubleValue
3.491

@<SCITEGIC>MOL_PROPERTY
Pdih
SciTegic.value.DoubleValue
8.535

@<SCITEGIC>MOL_PROPERTY
Idih
SciTegic.value.DoubleValue
0.000

@<SCITEGIC>MOL_PROPERTY
Tether
SciTegic.value.DoubleValue
0.000

@<TRIPOS>MOLECULE
guest-5_confgen4.mol2 : confsearch ligand conformer 71
          22          22           1
SMALL
USER_CHARGES
 
@<TRIPOS>ATOM
       1    C1      20.167618   20.382210   24.105522 C.3        1 MOL1        -0.1685
       2    H1      21.080874   20.919011   23.815188 H          1 MOL1         0.0832
       3    H2      19.946835   20.696313   25.134858 H          1 MOL1         0.0832
       4    C2      20.405246   18.854840   24.118017 C.3        1 MOL1        -0.1685
       5    H3      20.923269   18.588505   25.049664 H          1 MOL1         0.0832
       6    H4      19.438761   18.336895   24.172581 H          1 MOL1         0.0832
       7    C3      21.239385   18.295357   22.937820 C.3        1 MOL1        -0.1685
       8    H5      20.972348   17.239407   22.792990 H          1 MOL1         0.0832
       9    H6      22.297802   18.290161   23.232194 H          1 MOL1         0.0832
      10    C4      21.135812   19.038138   21.578132 C.3        1 MOL1        -0.1761
      11    H7      21.763965   19.937714   21.611917 H          1 MOL1         0.0832
      12    H8      21.588469   18.400015   20.808131 H          1 MOL1         0.0832
      13    C5      19.721151   19.438160   21.099906 C.3        1 MOL1         0.1218
      14    H9      19.770534   19.573325   20.009873 H          1 MOL1         0.0789
      15    C6      19.243873   20.781936   21.695507 C.3        1 MOL1        -0.1761
      16    H10     19.984375   21.555829   21.455073 H          1 MOL1         0.0832
      17    H11     18.324956   21.080138   21.174056 H          1 MOL1         0.0832
      18    C7      18.971223   20.804617   23.219954 C.3        1 MOL1        -0.1685
      19    H12     18.683279   21.828449   23.494848 H          1 MOL1         0.0832
      20    H13     18.097590   20.180369   23.451376 H          1 MOL1         0.0832
      21    O1      18.786168   18.412251   21.395686 O.3        1 MOL1        -0.5509
      22    H14     18.860176   18.293877   22.363568 H          1 MOL1         0.3779
@<TRIPOS>BOND
    1     1     2    1
    2     1     3    1
    3     1     4    1
    4     4     5    1
    5     4     6    1
    6     4     7    1
    7     7     8    1
    8     7     9    1
    9     7    10    1
   10    10    11    1
   11    10    12    1
   12    10    13    1
   13    13    14    1
   14    13    15    1
   15    15    16    1
   16    15    17    1
   17     1    18    1
   18    15    18    1
   19    18    19    1
   20    18    20    1
   21    13    21    1
   22    21    22    1
@<TRIPOS>SUBSTRUCTURE
       1 MOL1            1 RESIDUE      1      MOL     
@<SCITEGIC>MOL_PROPERTY
VConf Rank
SciTegic.value.IntegerValue
71

@<SCITEGIC>MOL_PROPERTY
Conf_Id
SciTegic.value.IntegerValue
99

@<SCITEGIC>MOL_PROPERTY
Delta U+W
SciTegic.value.DoubleValue
-3.852

@<SCITEGIC>MOL_PROPERTY
U+W
SciTegic.value.DoubleValue
2.572

@<SCITEGIC>MOL_PROPERTY
Grad RMS
SciTegic.value.DoubleValue
0.000000

@<SCITEGIC>MOL_PROPERTY
U
SciTegic.value.DoubleValue
3.922

@<SCITEGIC>MOL_PROPERTY
W
SciTegic.value.DoubleValue
-1.350

@<SCITEGIC>MOL_PROPERTY
W(PB)
SciTegic.value.DoubleValue
-3.345

@<SCITEGIC>MOL_PROPERTY
W(SA)
SciTegic.value.DoubleValue
1.995

@<SCITEGIC>MOL_PROPERTY
Valence
SciTegic.value.DoubleValue
12.571

@<SCITEGIC>MOL_PROPERTY
Coulomb
SciTegic.value.DoubleValue
-10.581

@<SCITEGIC>MOL_PROPERTY
VdW
SciTegic.value.DoubleValue
1.932

@<SCITEGIC>MOL_PROPERTY
VdW6
SciTegic.value.DoubleValue
-10.483

@<SCITEGIC>MOL_PROPERTY
VdW12
SciTegic.value.DoubleValue
12.415

@<SCITEGIC>MOL_PROPERTY
Bond
SciTegic.value.DoubleValue
0.268

@<SCITEGIC>MOL_PROPERTY
Angle
SciTegic.value.DoubleValue
3.728

@<SCITEGIC>MOL_PROPERTY
Pdih
SciTegic.value.DoubleValue
8.575

@<SCITEGIC>MOL_PROPERTY
Idih
SciTegic.value.DoubleValue
0.000

@<SCITEGIC>MOL_PROPERTY
Tether
SciTegic.value.DoubleValue
0.000

@<TRIPOS>MOLECULE
guest-5_confgen4.mol2 : confsearch ligand conformer 72
          22          22           1
SMALL
USER_CHARGES
 
@<TRIPOS>ATOM
       1    C1      21.311544   18.482397   22.543770 C.3        1 MOL1        -0.1685
       2    H1      21.965362   17.705711   22.963976 H          1 MOL1         0.0832
       3    H2      21.613062   18.567183   21.491176 H          1 MOL1         0.0832
       4    C2      21.607282   19.813365   23.295378 C.3        1 MOL1        -0.1685
       5    H3      22.389220   19.612800   24.040789 H          1 MOL1         0.0832
       6    H4      22.052422   20.545196   22.608117 H          1 MOL1         0.0832
       7    C3      20.405977   20.457996   24.032987 C.3        1 MOL1        -0.1685
       8    H5      20.785403   21.267113   24.671808 H          1 MOL1         0.0832
       9    H6      19.970354   19.734906   24.733659 H          1 MOL1         0.0832
      10    C4      19.289534   21.050249   23.128762 C.3        1 MOL1        -0.1761
      11    H7      18.364660   21.105109   23.717268 H          1 MOL1         0.0832
      12    H8      19.547699   22.092059   22.896428 H          1 MOL1         0.0832
      13    C5      18.976917   20.337529   21.789935 C.3        1 MOL1         0.1218
      14    H9      18.031791   20.757930   21.417410 H          1 MOL1         0.0789
      15    C6      18.790035   18.801787   21.858603 C.3        1 MOL1        -0.1761
      16    H10     17.806026   18.590884   22.296766 H          1 MOL1         0.0832
      17    H11     18.734188   18.428943   20.827164 H          1 MOL1         0.0832
      18    C7      19.852236   17.966181   22.625605 C.3        1 MOL1        -0.1685
      19    H12     19.554224   17.863197   23.676390 H          1 MOL1         0.0832
      20    H13     19.824308   16.942070   22.229194 H          1 MOL1         0.0832
      21    O1      19.979877   20.652940   20.837134 O.3        1 MOL1        -0.5509
      22    H14     20.793748   20.260358   21.211868 H          1 MOL1         0.3779
@<TRIPOS>BOND
    1     1     2    1
    2     1     3    1
    3     1     4    1
    4     4     5    1
    5     4     6    1
    6     4     7    1
    7     7     8    1
    8     7     9    1
    9     7    10    1
   10    10    11    1
   11    10    12    1
   12    10    13    1
   13    13    14    1
   14    13    15    1
   15    15    16    1
   16    15    17    1
   17     1    18    1
   18    15    18    1
   19    18    19    1
   20    18    20    1
   21    13    21    1
   22    21    22    1
@<TRIPOS>SUBSTRUCTURE
       1 MOL1            1 RESIDUE      1      MOL     
@<SCITEGIC>MOL_PROPERTY
VConf Rank
SciTegic.value.IntegerValue
72

@<SCITEGIC>MOL_PROPERTY
Conf_Id
SciTegic.value.IntegerValue
98

@<SCITEGIC>MOL_PROPERTY
Delta U+W
SciTegic.value.DoubleValue
0.930

@<SCITEGIC>MOL_PROPERTY
U+W
SciTegic.value.DoubleValue
7.353

@<SCITEGIC>MOL_PROPERTY
Grad RMS
SciTegic.value.DoubleValue
0.000000

@<SCITEGIC>MOL_PROPERTY
U
SciTegic.value.DoubleValue
8.455

@<SCITEGIC>MOL_PROPERTY
W
SciTegic.value.DoubleValue
-1.102

@<SCITEGIC>MOL_PROPERTY
W(PB)
SciTegic.value.DoubleValue
-3.101

@<SCITEGIC>MOL_PROPERTY
W(SA)
SciTegic.value.DoubleValue
2.000

@<SCITEGIC>MOL_PROPERTY
Valence
SciTegic.value.DoubleValue
15.601

@<SCITEGIC>MOL_PROPERTY
Coulomb
SciTegic.value.DoubleValue
-10.573

@<SCITEGIC>MOL_PROPERTY
VdW
SciTegic.value.DoubleValue
3.427

@<SCITEGIC>MOL_PROPERTY
VdW6
SciTegic.value.DoubleValue
-11.360

@<SCITEGIC>MOL_PROPERTY
VdW12
SciTegic.value.DoubleValue
14.787

@<SCITEGIC>MOL_PROPERTY
Bond
SciTegic.value.DoubleValue
0.471

@<SCITEGIC>MOL_PROPERTY
Angle
SciTegic.value.DoubleValue
5.445

@<SCITEGIC>MOL_PROPERTY
Pdih
SciTegic.value.DoubleValue
9.685

@<SCITEGIC>MOL_PROPERTY
Idih
SciTegic.value.DoubleValue
0.000

@<SCITEGIC>MOL_PROPERTY
Tether
SciTegic.value.DoubleValue
0.000

@<TRIPOS>MOLECULE
guest-5_confgen4.mol2 : confsearch ligand conformer 73
          22          22           1
SMALL
USER_CHARGES
 
@<TRIPOS>ATOM
       1    C1      20.133675   19.455989   24.368031 C.3        1 MOL1        -0.1685
       2    H1      21.123024   19.920934   24.269060 H          1 MOL1         0.0832
       3    H2      19.971548   19.358209   25.450097 H          1 MOL1         0.0832
       4    C2      20.156179   18.038114   23.742503 C.3        1 MOL1        -0.1685
       5    H3      20.921958   17.455158   24.272238 H          1 MOL1         0.0832
       6    H4      19.203054   17.531338   23.945856 H          1 MOL1         0.0832
       7    C3      20.459257   17.963974   22.220237 C.3        1 MOL1        -0.1685
       8    H5      19.532879   17.780733   21.660541 H          1 MOL1         0.0832
       9    H6      21.080164   17.076441   22.037491 H          1 MOL1         0.0832
      10    C4      21.181487   19.205357   21.632819 C.3        1 MOL1        -0.1761
      11    H7      22.072440   19.421931   22.235251 H          1 MOL1         0.0832
      12    H8      21.570215   18.940625   20.640249 H          1 MOL1         0.0832
      13    C5      20.321515   20.497264   21.509143 C.3        1 MOL1         0.1218
      14    H9      20.915369   21.337903   21.896094 H          1 MOL1         0.0789
      15    C6      18.963930   20.480891   22.255435 C.3        1 MOL1        -0.1761
      16    H10     18.403416   21.387722   21.993639 H          1 MOL1         0.0832
      17    H11     18.350230   19.650077   21.887046 H          1 MOL1         0.0832
      18    C7      19.056035   20.409333   23.800169 C.3        1 MOL1        -0.1685
      19    H12     19.250942   21.417079   24.191670 H          1 MOL1         0.0832
      20    H13     18.073082   20.117810   24.194491 H          1 MOL1         0.0832
      21    O1      20.047955   20.726330   20.131511 O.3        1 MOL1        -0.5509
      22    H14     19.556900   21.572590   20.077764 H          1 MOL1         0.3779
@<TRIPOS>BOND
    1     1     2    1
    2     1     3    1
    3     1     4    1
    4     4     5    1
    5     4     6    1
    6     4     7    1
    7     7     8    1
    8     7     9    1
    9     7    10    1
   10    10    11    1
   11    10    12    1
   12    10    13    1
   13    13    14    1
   14    13    15    1
   15    15    16    1
   16    15    17    1
   17     1    18    1
   18    15    18    1
   19    18    19    1
   20    18    20    1
   21    13    21    1
   22    21    22    1
@<TRIPOS>SUBSTRUCTURE
       1 MOL1            1 RESIDUE      1      MOL     
@<SCITEGIC>MOL_PROPERTY
VConf Rank
SciTegic.value.IntegerValue
73

@<SCITEGIC>MOL_PROPERTY
Conf_Id
SciTegic.value.IntegerValue
141

@<SCITEGIC>MOL_PROPERTY
Delta U+W
SciTegic.value.DoubleValue
0.000

@<SCITEGIC>MOL_PROPERTY
U+W
SciTegic.value.DoubleValue
6.423

@<SCITEGIC>MOL_PROPERTY
Grad RMS
SciTegic.value.DoubleValue
0.000000

@<SCITEGIC>MOL_PROPERTY
U
SciTegic.value.DoubleValue
8.781

@<SCITEGIC>MOL_PROPERTY
W
SciTegic.value.DoubleValue
-2.358

@<SCITEGIC>MOL_PROPERTY
W(PB)
SciTegic.value.DoubleValue
-4.373

@<SCITEGIC>MOL_PROPERTY
W(SA)
SciTegic.value.DoubleValue
2.015

@<SCITEGIC>MOL_PROPERTY
Valence
SciTegic.value.DoubleValue
13.328

@<SCITEGIC>MOL_PROPERTY
Coulomb
SciTegic.value.DoubleValue
-8.387

@<SCITEGIC>MOL_PROPERTY
VdW
SciTegic.value.DoubleValue
3.840

@<SCITEGIC>MOL_PROPERTY
VdW6
SciTegic.value.DoubleValue
-9.744

@<SCITEGIC>MOL_PROPERTY
VdW12
SciTegic.value.DoubleValue
13.584

@<SCITEGIC>MOL_PROPERTY
Bond
SciTegic.value.DoubleValue
0.436

@<SCITEGIC>MOL_PROPERTY
Angle
SciTegic.value.DoubleValue
3.478

@<SCITEGIC>MOL_PROPERTY
Pdih
SciTegic.value.DoubleValue
9.415

@<SCITEGIC>MOL_PROPERTY
Idih
SciTegic.value.DoubleValue
0.000

@<SCITEGIC>MOL_PROPERTY
Tether
SciTegic.value.DoubleValue
0.000

@<TRIPOS>MOLECULE
guest-5_confgen4.mol2 : confsearch ligand conformer 74
          22          22           1
SMALL
USER_CHARGES
 
@<TRIPOS>ATOM
       1    C1      19.484979   17.939182   22.533434 C.3        1 MOL1        -0.1685
       2    H1      18.522655   18.217483   22.984089 H          1 MOL1         0.0832
       3    H2      19.409728   16.869882   22.292937 H          1 MOL1         0.0832
       4    C2      20.641647   18.112209   23.547255 C.3        1 MOL1        -0.1685
       5    H3      20.529547   17.357962   24.338078 H          1 MOL1         0.0832
       6    H4      21.596229   17.886323   23.052656 H          1 MOL1         0.0832
       7    C3      20.729205   19.503148   24.216548 C.3        1 MOL1        -0.1685
       8    H5      21.622344   19.519844   24.855962 H          1 MOL1         0.0832
       9    H6      19.873968   19.637038   24.893012 H          1 MOL1         0.0832
      10    C4      20.801998   20.698043   23.234659 C.3        1 MOL1        -0.1761
      11    H7      21.091099   21.585573   23.812755 H          1 MOL1         0.0832
      12    H8      21.597705   20.543121   22.494493 H          1 MOL1         0.0832
      13    C5      19.454504   20.974747   22.530867 C.3        1 MOL1         0.1218
      14    H9      18.643375   20.716698   23.226800 H          1 MOL1         0.0789
      15    C6      19.239900   20.182732   21.220923 C.3        1 MOL1        -0.1761
      16    H10     18.166327   20.203809   20.993223 H          1 MOL1         0.0832
      17    H11     19.733303   20.709213   20.392985 H          1 MOL1         0.0832
      18    C7      19.721102   18.710171   21.213637 C.3        1 MOL1        -0.1685
      19    H12     19.203072   18.187857   20.397759 H          1 MOL1         0.0832
      20    H13     20.788160   18.673594   20.955256 H          1 MOL1         0.0832
      21    O1      19.373030   22.361646   22.225756 O.3        1 MOL1        -0.5509
      22    H14     19.435182   22.842234   23.077689 H          1 MOL1         0.3779
@<TRIPOS>BOND
    1     1     2    1
    2     1     3    1
    3     1     4    1
    4     4     5    1
    5     4     6    1
    6     4     7    1
    7     7     8    1
    8     7     9    1
    9     7    10    1
   10    10    11    1
   11    10    12    1
   12    10    13    1
   13    13    14    1
   14    13    15    1
   15    15    16    1
   16    15    17    1
   17     1    18    1
   18    15    18    1
   19    18    19    1
   20    18    20    1
   21    13    21    1
   22    21    22    1
@<TRIPOS>SUBSTRUCTURE
       1 MOL1            1 RESIDUE      1      MOL     
@<SCITEGIC>MOL_PROPERTY
VConf Rank
SciTegic.value.IntegerValue
74

@<SCITEGIC>MOL_PROPERTY
Conf_Id
SciTegic.value.IntegerValue
144

@<SCITEGIC>MOL_PROPERTY
Delta U+W
SciTegic.value.DoubleValue
-3.291

@<SCITEGIC>MOL_PROPERTY
U+W
SciTegic.value.DoubleValue
3.132

@<SCITEGIC>MOL_PROPERTY
Grad RMS
SciTegic.value.DoubleValue
0.000000

@<SCITEGIC>MOL_PROPERTY
U
SciTegic.value.DoubleValue
5.411

@<SCITEGIC>MOL_PROPERTY
W
SciTegic.value.DoubleValue
-2.279

@<SCITEGIC>MOL_PROPERTY
W(PB)
SciTegic.value.DoubleValue
-4.300

@<SCITEGIC>MOL_PROPERTY
W(SA)
SciTegic.value.DoubleValue
2.021

@<SCITEGIC>MOL_PROPERTY
Valence
SciTegic.value.DoubleValue
11.909

@<SCITEGIC>MOL_PROPERTY
Coulomb
SciTegic.value.DoubleValue
-8.733

@<SCITEGIC>MOL_PROPERTY
VdW
SciTegic.value.DoubleValue
2.236

@<SCITEGIC>MOL_PROPERTY
VdW6
SciTegic.value.DoubleValue
-8.936

@<SCITEGIC>MOL_PROPERTY
VdW12
SciTegic.value.DoubleValue
11.172

@<SCITEGIC>MOL_PROPERTY
Bond
SciTegic.value.DoubleValue
0.223

@<SCITEGIC>MOL_PROPERTY
Angle
SciTegic.value.DoubleValue
2.457

@<SCITEGIC>MOL_PROPERTY
Pdih
SciTegic.value.DoubleValue
9.228

@<SCITEGIC>MOL_PROPERTY
Idih
SciTegic.value.DoubleValue
0.000

@<SCITEGIC>MOL_PROPERTY
Tether
SciTegic.value.DoubleValue
0.000

@<TRIPOS>MOLECULE
guest-5_confgen4.mol2 : confsearch ligand conformer 75
          22          22           1
SMALL
USER_CHARGES
 
@<TRIPOS>ATOM
       1    C1      19.594301   18.156206   23.619114 C.3        1 MOL1        -0.1685
       2    H1      19.317800   17.476006   24.436283 H          1 MOL1         0.0832
       3    H2      19.826974   17.516584   22.756891 H          1 MOL1         0.0832
       4    C2      20.840812   18.956462   24.063946 C.3        1 MOL1        -0.1685
       5    H3      20.527196   19.805335   24.686709 H          1 MOL1         0.0832
       6    H4      21.454264   18.323302   24.719523 H          1 MOL1         0.0832
       7    C3      21.741522   19.462692   22.911395 C.3        1 MOL1        -0.1685
       8    H5      22.422983   18.655617   22.609475 H          1 MOL1         0.0832
       9    H6      22.383137   20.263105   23.304697 H          1 MOL1         0.0832
      10    C4      21.012732   19.977085   21.645533 C.3        1 MOL1        -0.1761
      11    H7      21.722219   20.592961   21.076502 H          1 MOL1         0.0832
      12    H8      20.771675   19.124870   20.997061 H          1 MOL1         0.0832
      13    C5      19.727736   20.790498   21.918914 C.3        1 MOL1         0.1218
      14    H9      19.848842   21.370018   22.845174 H          1 MOL1         0.0789
      15    C6      18.471998   19.895882   22.027369 C.3        1 MOL1        -0.1761
      16    H10     17.579753   20.533236   21.965657 H          1 MOL1         0.0832
      17    H11     18.425093   19.223737   21.160705 H          1 MOL1         0.0832
      18    C7      18.372030   19.058575   23.324535 C.3        1 MOL1        -0.1685
      19    H12     18.199112   19.728576   24.177836 H          1 MOL1         0.0832
      20    H13     17.477334   18.424877   23.255728 H          1 MOL1         0.0832
      21    O1      19.530016   21.690565   20.836787 O.3        1 MOL1        -0.5509
      22    H14     19.428544   21.139436   20.033594 H          1 MOL1         0.3779
@<TRIPOS>BOND
    1     1     2    1
    2     1     3    1
    3     1     4    1
    4     4     5    1
    5     4     6    1
    6     4     7    1
    7     7     8    1
    8     7     9    1
    9     7    10    1
   10    10    11    1
   11    10    12    1
   12    10    13    1
   13    13    14    1
   14    13    15    1
   15    15    16    1
   16    15    17    1
   17     1    18    1
   18    15    18    1
   19    18    19    1
   20    18    20    1
   21    13    21    1
   22    21    22    1
@<TRIPOS>SUBSTRUCTURE
       1 MOL1            1 RESIDUE      1      MOL     
@<SCITEGIC>MOL_PROPERTY
VConf Rank
SciTegic.value.IntegerValue
75

@<SCITEGIC>MOL_PROPERTY
Conf_Id
SciTegic.value.IntegerValue
76

@<SCITEGIC>MOL_PROPERTY
Delta U+W
SciTegic.value.DoubleValue
-3.175

@<SCITEGIC>MOL_PROPERTY
U+W
SciTegic.value.DoubleValue
3.248

@<SCITEGIC>MOL_PROPERTY
Grad RMS
SciTegic.value.DoubleValue
0.000000

@<SCITEGIC>MOL_PROPERTY
U
SciTegic.value.DoubleValue
5.336

@<SCITEGIC>MOL_PROPERTY
W
SciTegic.value.DoubleValue
-2.088

@<SCITEGIC>MOL_PROPERTY
W(PB)
SciTegic.value.DoubleValue
-4.098

@<SCITEGIC>MOL_PROPERTY
W(SA)
SciTegic.value.DoubleValue
2.010

@<SCITEGIC>MOL_PROPERTY
Valence
SciTegic.value.DoubleValue
12.390

@<SCITEGIC>MOL_PROPERTY
Coulomb
SciTegic.value.DoubleValue
-9.270

@<SCITEGIC>MOL_PROPERTY
VdW
SciTegic.value.DoubleValue
2.216

@<SCITEGIC>MOL_PROPERTY
VdW6
SciTegic.value.DoubleValue
-8.967

@<SCITEGIC>MOL_PROPERTY
VdW12
SciTegic.value.DoubleValue
11.183

@<SCITEGIC>MOL_PROPERTY
Bond
SciTegic.value.DoubleValue
0.218

@<SCITEGIC>MOL_PROPERTY
Angle
SciTegic.value.DoubleValue
2.426

@<SCITEGIC>MOL_PROPERTY
Pdih
SciTegic.value.DoubleValue
9.745

@<SCITEGIC>MOL_PROPERTY
Idih
SciTegic.value.DoubleValue
0.000

@<SCITEGIC>MOL_PROPERTY
Tether
SciTegic.value.DoubleValue
0.000

@<TRIPOS>MOLECULE
guest-5_confgen4.mol2 : confsearch ligand conformer 76
          22          22           1
SMALL
USER_CHARGES
 
@<TRIPOS>ATOM
       1    C1      21.337476   20.057382   23.975294 C.3        1 MOL1        -0.1685
       2    H1      22.203531   19.473791   24.316104 H          1 MOL1         0.0832
       3    H2      21.413546   21.028258   24.483651 H          1 MOL1         0.0832
       4    C2      20.052230   19.340327   24.453469 C.3        1 MOL1        -0.1685
       5    H3      20.198156   18.252909   24.401433 H          1 MOL1         0.0832
       6    H4      19.913572   19.567231   25.519336 H          1 MOL1         0.0832
       7    C3      18.765151   19.723936   23.686779 C.3        1 MOL1        -0.1685
       8    H5      18.764197   20.791752   23.428702 H          1 MOL1         0.0832
       9    H6      17.909823   19.572182   24.358847 H          1 MOL1         0.0832
      10    C4      18.535248   18.852067   22.426196 C.3        1 MOL1        -0.1761
      11    H7      18.613052   17.792459   22.701318 H          1 MOL1         0.0832
      12    H8      17.500739   18.993193   22.086655 H          1 MOL1         0.0832
      13    C5      19.471487   19.124874   21.226976 C.3        1 MOL1         0.1218
      14    H9      19.301407   18.316151   20.501623 H          1 MOL1         0.0789
      15    C6      20.984728   19.128053   21.559513 C.3        1 MOL1        -0.1761
      16    H10     21.267188   18.170928   22.016685 H          1 MOL1         0.0832
      17    H11     21.532349   19.175104   20.609416 H          1 MOL1         0.0832
      18    C7      21.460760   20.303214   22.452602 C.3        1 MOL1        -0.1685
      19    H12     22.515695   20.512167   22.229280 H          1 MOL1         0.0832
      20    H13     20.920206   21.221213   22.187045 H          1 MOL1         0.0832
      21    O1      19.102440   20.355848   20.613358 O.3        1 MOL1        -0.5509
      22    H14     19.749240   20.514770   19.895948 H          1 MOL1         0.3779
@<TRIPOS>BOND
    1     1     2    1
    2     1     3    1
    3     1     4    1
    4     4     5    1
    5     4     6    1
    6     4     7    1
    7     7     8    1
    8     7     9    1
    9     7    10    1
   10    10    11    1
   11    10    12    1
   12    10    13    1
   13    13    14    1
   14    13    15    1
   15    15    16    1
   16    15    17    1
   17     1    18    1
   18    15    18    1
   19    18    19    1
   20    18    20    1
   21    13    21    1
   22    21    22    1
@<TRIPOS>SUBSTRUCTURE
       1 MOL1            1 RESIDUE      1      MOL     
@<SCITEGIC>MOL_PROPERTY
VConf Rank
SciTegic.value.IntegerValue
76

@<SCITEGIC>MOL_PROPERTY
Conf_Id
SciTegic.value.IntegerValue
95

@<SCITEGIC>MOL_PROPERTY
Delta U+W
SciTegic.value.DoubleValue
-2.289

@<SCITEGIC>MOL_PROPERTY
U+W
SciTegic.value.DoubleValue
4.134

@<SCITEGIC>MOL_PROPERTY
Grad RMS
SciTegic.value.DoubleValue
0.000000

@<SCITEGIC>MOL_PROPERTY
U
SciTegic.value.DoubleValue
6.373

@<SCITEGIC>MOL_PROPERTY
W
SciTegic.value.DoubleValue
-2.240

@<SCITEGIC>MOL_PROPERTY
W(PB)
SciTegic.value.DoubleValue
-4.254

@<SCITEGIC>MOL_PROPERTY
W(SA)
SciTegic.value.DoubleValue
2.015

@<SCITEGIC>MOL_PROPERTY
Valence
SciTegic.value.DoubleValue
12.093

@<SCITEGIC>MOL_PROPERTY
Coulomb
SciTegic.value.DoubleValue
-8.058

@<SCITEGIC>MOL_PROPERTY
VdW
SciTegic.value.DoubleValue
2.339

@<SCITEGIC>MOL_PROPERTY
VdW6
SciTegic.value.DoubleValue
-9.683

@<SCITEGIC>MOL_PROPERTY
VdW12
SciTegic.value.DoubleValue
12.022

@<SCITEGIC>MOL_PROPERTY
Bond
SciTegic.value.DoubleValue
0.268

@<SCITEGIC>MOL_PROPERTY
Angle
SciTegic.value.DoubleValue
3.005

@<SCITEGIC>MOL_PROPERTY
Pdih
SciTegic.value.DoubleValue
8.820

@<SCITEGIC>MOL_PROPERTY
Idih
SciTegic.value.DoubleValue
0.000

@<SCITEGIC>MOL_PROPERTY
Tether
SciTegic.value.DoubleValue
0.000

@<TRIPOS>MOLECULE
guest-5_confgen4.mol2 : confsearch ligand conformer 77
          22          22           1
SMALL
USER_CHARGES
 
@<TRIPOS>ATOM
       1    C1      21.927543   19.812608   22.980458 C.3        1 MOL1        -0.1685
       2    H1      22.556637   20.690814   22.781082 H          1 MOL1         0.0832
       3    H2      22.598128   19.057862   23.413428 H          1 MOL1         0.0832
       4    C2      21.387930   19.286925   21.628865 C.3        1 MOL1        -0.1685
       5    H3      21.180802   20.135330   20.962692 H          1 MOL1         0.0832
       6    H4      22.191802   18.719732   21.140110 H          1 MOL1         0.0832
       7    C3      20.130837   18.391779   21.728601 C.3        1 MOL1        -0.1685
       8    H5      20.178028   17.744995   22.615316 H          1 MOL1         0.0832
       9    H6      20.122504   17.718938   20.860476 H          1 MOL1         0.0832
      10    C4      18.813357   19.207299   21.706688 C.3        1 MOL1        -0.1761
      11    H7      18.836214   19.903459   20.858316 H          1 MOL1         0.0832
      12    H8      17.980457   18.523044   21.499190 H          1 MOL1         0.0832
      13    C5      18.482113   20.002628   22.990224 C.3        1 MOL1         0.1218
      14    H9      17.627551   20.651592   22.750078 H          1 MOL1         0.0789
      15    C6      19.618283   20.920485   23.506934 C.3        1 MOL1        -0.1761
      16    H10     19.909889   21.632456   22.724278 H          1 MOL1         0.0832
      17    H11     19.200912   21.525457   24.322188 H          1 MOL1         0.0832
      18    C7      20.869417   20.180554   24.047865 C.3        1 MOL1        -0.1685
      19    H12     21.356194   20.815051   24.800646 H          1 MOL1         0.0832
      20    H13     20.563055   19.274464   24.587089 H          1 MOL1         0.0832
      21    O1      18.078768   19.099038   24.014789 O.3        1 MOL1        -0.5509
      22    H14     17.375915   18.535307   23.632178 H          1 MOL1         0.3779
@<TRIPOS>BOND
    1     1     2    1
    2     1     3    1
    3     1     4    1
    4     4     5    1
    5     4     6    1
    6     4     7    1
    7     7     8    1
    8     7     9    1
    9     7    10    1
   10    10    11    1
   11    10    12    1
   12    10    13    1
   13    13    14    1
   14    13    15    1
   15    15    16    1
   16    15    17    1
   17     1    18    1
   18    15    18    1
   19    18    19    1
   20    18    20    1
   21    13    21    1
   22    21    22    1
@<TRIPOS>SUBSTRUCTURE
       1 MOL1            1 RESIDUE      1      MOL     
@<SCITEGIC>MOL_PROPERTY
VConf Rank
SciTegic.value.IntegerValue
77

@<SCITEGIC>MOL_PROPERTY
Conf_Id
SciTegic.value.IntegerValue
41

@<SCITEGIC>MOL_PROPERTY
Delta U+W
SciTegic.value.DoubleValue
-2.114

@<SCITEGIC>MOL_PROPERTY
U+W
SciTegic.value.DoubleValue
4.310

@<SCITEGIC>MOL_PROPERTY
Grad RMS
SciTegic.value.DoubleValue
0.000000

@<SCITEGIC>MOL_PROPERTY
U
SciTegic.value.DoubleValue
6.598

@<SCITEGIC>MOL_PROPERTY
W
SciTegic.value.DoubleValue
-2.289

@<SCITEGIC>MOL_PROPERTY
W(PB)
SciTegic.value.DoubleValue
-4.294

@<SCITEGIC>MOL_PROPERTY
W(SA)
SciTegic.value.DoubleValue
2.005

@<SCITEGIC>MOL_PROPERTY
Valence
SciTegic.value.DoubleValue
12.082

@<SCITEGIC>MOL_PROPERTY
Coulomb
SciTegic.value.DoubleValue
-7.801

@<SCITEGIC>MOL_PROPERTY
VdW
SciTegic.value.DoubleValue
2.317

@<SCITEGIC>MOL_PROPERTY
VdW6
SciTegic.value.DoubleValue
-9.658

@<SCITEGIC>MOL_PROPERTY
VdW12
SciTegic.value.DoubleValue
11.975

@<SCITEGIC>MOL_PROPERTY
Bond
SciTegic.value.DoubleValue
0.267

@<SCITEGIC>MOL_PROPERTY
Angle
SciTegic.value.DoubleValue
3.051

@<SCITEGIC>MOL_PROPERTY
Pdih
SciTegic.value.DoubleValue
8.764

@<SCITEGIC>MOL_PROPERTY
Idih
SciTegic.value.DoubleValue
0.000

@<SCITEGIC>MOL_PROPERTY
Tether
SciTegic.value.DoubleValue
0.000

@<TRIPOS>MOLECULE
guest-5_confgen4.mol2 : confsearch ligand conformer 78
          22          22           1
SMALL
USER_CHARGES
 
@<TRIPOS>ATOM
       1    C1      18.810841   19.578805   21.642868 C.3        1 MOL1        -0.1685
       2    H1      17.831091   19.540944   21.147686 H          1 MOL1         0.0832
       3    H2      19.464591   20.170467   20.987334 H          1 MOL1         0.0832
       4    C2      19.332835   18.130272   21.771950 C.3        1 MOL1        -0.1685
       5    H3      18.702382   17.574049   22.478863 H          1 MOL1         0.0832
       6    H4      19.214578   17.627123   20.802716 H          1 MOL1         0.0832
       7    C3      20.812339   18.014350   22.199560 C.3        1 MOL1        -0.1685
       8    H5      21.456572   18.382897   21.390223 H          1 MOL1         0.0832
       9    H6      21.051920   16.947597   22.303310 H          1 MOL1         0.0832
      10    C4      21.172136   18.727398   23.531212 C.3        1 MOL1        -0.1761
      11    H7      20.478998   18.417656   24.323599 H          1 MOL1         0.0832
      12    H8      22.160331   18.366906   23.844420 H          1 MOL1         0.0832
      13    C5      21.247879   20.274973   23.473720 C.3        1 MOL1         0.1218
      14    H9      21.807875   20.596522   24.363826 H          1 MOL1         0.0789
      15    C6      19.889520   21.021468   23.526145 C.3        1 MOL1        -0.1761
      16    H10     19.699424   21.305903   24.569228 H          1 MOL1         0.0832
      17    H11     19.981395   21.970134   22.981110 H          1 MOL1         0.0832
      18    C7      18.634677   20.273849   23.011041 C.3        1 MOL1        -0.1685
      19    H12     18.302917   19.541975   23.759847 H          1 MOL1         0.0832
      20    H13     17.817984   21.004152   22.931364 H          1 MOL1         0.0832
      21    O1      21.982432   20.695713   22.327279 O.3        1 MOL1        -0.5509
      22    H14     22.031170   21.672479   22.365507 H          1 MOL1         0.3779
@<TRIPOS>BOND
    1     1     2    1
    2     1     3    1
    3     1     4    1
    4     4     5    1
    5     4     6    1
    6     4     7    1
    7     7     8    1
    8     7     9    1
    9     7    10    1
   10    10    11    1
   11    10    12    1
   12    10    13    1
   13    13    14    1
   14    13    15    1
   15    15    16    1
   16    15    17    1
   17     1    18    1
   18    15    18    1
   19    18    19    1
   20    18    20    1
   21    13    21    1
   22    21    22    1
@<TRIPOS>SUBSTRUCTURE
       1 MOL1            1 RESIDUE      1      MOL     
@<SCITEGIC>MOL_PROPERTY
VConf Rank
SciTegic.value.IntegerValue
78

@<SCITEGIC>MOL_PROPERTY
Conf_Id
SciTegic.value.IntegerValue
104

@<SCITEGIC>MOL_PROPERTY
Delta U+W
SciTegic.value.DoubleValue
-1.172

@<SCITEGIC>MOL_PROPERTY
U+W
SciTegic.value.DoubleValue
5.252

@<SCITEGIC>MOL_PROPERTY
Grad RMS
SciTegic.value.DoubleValue
0.000000

@<SCITEGIC>MOL_PROPERTY
U
SciTegic.value.DoubleValue
7.482

@<SCITEGIC>MOL_PROPERTY
W
SciTegic.value.DoubleValue
-2.230

@<SCITEGIC>MOL_PROPERTY
W(PB)
SciTegic.value.DoubleValue
-4.220

@<SCITEGIC>MOL_PROPERTY
W(SA)
SciTegic.value.DoubleValue
1.990

@<SCITEGIC>MOL_PROPERTY
Valence
SciTegic.value.DoubleValue
12.309

@<SCITEGIC>MOL_PROPERTY
Coulomb
SciTegic.value.DoubleValue
-7.084

@<SCITEGIC>MOL_PROPERTY
VdW
SciTegic.value.DoubleValue
2.258

@<SCITEGIC>MOL_PROPERTY
VdW6
SciTegic.value.DoubleValue
-9.770

@<SCITEGIC>MOL_PROPERTY
VdW12
SciTegic.value.DoubleValue
12.028

@<SCITEGIC>MOL_PROPERTY
Bond
SciTegic.value.DoubleValue
0.284

@<SCITEGIC>MOL_PROPERTY
Angle
SciTegic.value.DoubleValue
3.491

@<SCITEGIC>MOL_PROPERTY
Pdih
SciTegic.value.DoubleValue
8.535

@<SCITEGIC>MOL_PROPERTY
Idih
SciTegic.value.DoubleValue
0.000

@<SCITEGIC>MOL_PROPERTY
Tether
SciTegic.value.DoubleValue
0.000

@<TRIPOS>MOLECULE
guest-5_confgen4.mol2 : confsearch ligand conformer 79
          22          22           1
SMALL
USER_CHARGES
 
@<TRIPOS>ATOM
       1    C1      21.318042   20.094779   21.733225 C.3        1 MOL1        -0.1685
       2    H1      20.673114   20.708759   21.090123 H          1 MOL1         0.0832
       3    H2      22.334160   20.197570   21.328407 H          1 MOL1         0.0832
       4    C2      20.923628   18.602621   21.647266 C.3        1 MOL1        -0.1685
       5    H3      21.348133   18.180575   20.725897 H          1 MOL1         0.0832
       6    H4      21.409416   18.050543   22.462470 H          1 MOL1         0.0832
       7    C3      19.401882   18.309456   21.643093 C.3        1 MOL1        -0.1685
       8    H5      19.242606   17.292312   22.026973 H          1 MOL1         0.0832
       9    H6      19.055744   18.284658   20.600739 H          1 MOL1         0.0832
      10    C4      18.485172   19.295378   22.416918 C.3        1 MOL1        -0.1761
      11    H7      18.326535   20.193028   21.805351 H          1 MOL1         0.0832
      12    H8      17.494064   18.833072   22.511682 H          1 MOL1         0.0832
      13    C5      18.949138   19.730319   23.826011 C.3        1 MOL1         0.1218
      14    H9      18.058704   20.073854   24.371897 H          1 MOL1         0.0789
      15    C6      19.938139   20.917341   23.792476 C.3        1 MOL1        -0.1761
      16    H10     19.471710   21.748271   23.247444 H          1 MOL1         0.0832
      17    H11     20.074771   21.277957   24.820354 H          1 MOL1         0.0832
      18    C7      21.333814   20.637462   23.182109 C.3        1 MOL1        -0.1685
      19    H12     21.899884   21.578837   23.191589 H          1 MOL1         0.0832
      20    H13     21.893246   19.950401   23.831310 H          1 MOL1         0.0832
      21    O1      19.522992   18.634827   24.522256 O.3        1 MOL1        -0.5509
      22    H14     20.248814   18.335501   23.939270 H          1 MOL1         0.3779
@<TRIPOS>BOND
    1     1     2    1
    2     1     3    1
    3     1     4    1
    4     4     5    1
    5     4     6    1
    6     4     7    1
    7     7     8    1
    8     7     9    1
    9     7    10    1
   10    10    11    1
   11    10    12    1
   12    10    13    1
   13    13    14    1
   14    13    15    1
   15    15    16    1
   16    15    17    1
   17     1    18    1
   18    15    18    1
   19    18    19    1
   20    18    20    1
   21    13    21    1
   22    21    22    1
@<TRIPOS>SUBSTRUCTURE
       1 MOL1            1 RESIDUE      1      MOL     
@<SCITEGIC>MOL_PROPERTY
VConf Rank
SciTegic.value.IntegerValue
79

@<SCITEGIC>MOL_PROPERTY
Conf_Id
SciTegic.value.IntegerValue
99

@<SCITEGIC>MOL_PROPERTY
Delta U+W
SciTegic.value.DoubleValue
-3.852

@<SCITEGIC>MOL_PROPERTY
U+W
SciTegic.value.DoubleValue
2.572

@<SCITEGIC>MOL_PROPERTY
Grad RMS
SciTegic.value.DoubleValue
0.000000

@<SCITEGIC>MOL_PROPERTY
U
SciTegic.value.DoubleValue
3.922

@<SCITEGIC>MOL_PROPERTY
W
SciTegic.value.DoubleValue
-1.350

@<SCITEGIC>MOL_PROPERTY
W(PB)
SciTegic.value.DoubleValue
-3.345

@<SCITEGIC>MOL_PROPERTY
W(SA)
SciTegic.value.DoubleValue
1.995

@<SCITEGIC>MOL_PROPERTY
Valence
SciTegic.value.DoubleValue
12.571

@<SCITEGIC>MOL_PROPERTY
Coulomb
SciTegic.value.DoubleValue
-10.581

@<SCITEGIC>MOL_PROPERTY
VdW
SciTegic.value.DoubleValue
1.932

@<SCITEGIC>MOL_PROPERTY
VdW6
SciTegic.value.DoubleValue
-10.483

@<SCITEGIC>MOL_PROPERTY
VdW12
SciTegic.value.DoubleValue
12.415

@<SCITEGIC>MOL_PROPERTY
Bond
SciTegic.value.DoubleValue
0.268

@<SCITEGIC>MOL_PROPERTY
Angle
SciTegic.value.DoubleValue
3.728

@<SCITEGIC>MOL_PROPERTY
Pdih
SciTegic.value.DoubleValue
8.575

@<SCITEGIC>MOL_PROPERTY
Idih
SciTegic.value.DoubleValue
0.000

@<SCITEGIC>MOL_PROPERTY
Tether
SciTegic.value.DoubleValue
0.000

@<TRIPOS>MOLECULE
guest-5_confgen4.mol2 : confsearch ligand conformer 80
          22          22           1
SMALL
USER_CHARGES
 
@<TRIPOS>ATOM
       1    C1      18.748420   20.230135   23.460486 C.3        1 MOL1        -0.1685
       2    H1      18.005402   20.222526   24.269903 H          1 MOL1         0.0832
       3    H2      18.508315   21.120552   22.864196 H          1 MOL1         0.0832
       4    C2      18.540864   18.942855   22.609790 C.3        1 MOL1        -0.1685
       5    H3      17.707903   18.378156   23.050903 H          1 MOL1         0.0832
       6    H4      18.200009   19.207519   21.599926 H          1 MOL1         0.0832
       7    C3      19.759019   17.989185   22.513045 C.3        1 MOL1        -0.1685
       8    H5      19.425342   17.045905   22.059604 H          1 MOL1         0.0832
       9    H6      20.090562   17.708579   23.520472 H          1 MOL1         0.0832
      10    C4      20.968827   18.510802   21.688963 C.3        1 MOL1        -0.1761
      11    H7      21.864671   17.965035   22.011986 H          1 MOL1         0.0832
      12    H8      20.820275   18.228336   20.638182 H          1 MOL1         0.0832
      13    C5      21.279511   20.027493   21.724750 C.3        1 MOL1         0.1218
      14    H9      22.276793   20.159763   21.281232 H          1 MOL1         0.0789
      15    C6      21.319380   20.685844   23.125867 C.3        1 MOL1        -0.1761
      16    H10     22.256763   20.397349   23.618639 H          1 MOL1         0.0832
      17    H11     21.391127   21.771807   22.979124 H          1 MOL1         0.0832
      18    C7      20.147680   20.399415   24.105600 C.3        1 MOL1        -0.1685
      19    H12     20.382697   19.519115   24.716671 H          1 MOL1         0.0832
      20    H13     20.099898   21.229182   24.823882 H          1 MOL1         0.0832
      21    O1      20.358347   20.721802   20.898533 O.3        1 MOL1        -0.5509
      22    H14     19.494067   20.574546   21.332432 H          1 MOL1         0.3779
@<TRIPOS>BOND
    1     1     2    1
    2     1     3    1
    3     1     4    1
    4     4     5    1
    5     4     6    1
    6     4     7    1
    7     7     8    1
    8     7     9    1
    9     7    10    1
   10    10    11    1
   11    10    12    1
   12    10    13    1
   13    13    14    1
   14    13    15    1
   15    15    16    1
   16    15    17    1
   17     1    18    1
   18    15    18    1
   19    18    19    1
   20    18    20    1
   21    13    21    1
   22    21    22    1
@<TRIPOS>SUBSTRUCTURE
       1 MOL1            1 RESIDUE      1      MOL     
@<SCITEGIC>MOL_PROPERTY
VConf Rank
SciTegic.value.IntegerValue
80

@<SCITEGIC>MOL_PROPERTY
Conf_Id
SciTegic.value.IntegerValue
98

@<SCITEGIC>MOL_PROPERTY
Delta U+W
SciTegic.value.DoubleValue
0.930

@<SCITEGIC>MOL_PROPERTY
U+W
SciTegic.value.DoubleValue
7.353

@<SCITEGIC>MOL_PROPERTY
Grad RMS
SciTegic.value.DoubleValue
0.000000

@<SCITEGIC>MOL_PROPERTY
U
SciTegic.value.DoubleValue
8.455

@<SCITEGIC>MOL_PROPERTY
W
SciTegic.value.DoubleValue
-1.102

@<SCITEGIC>MOL_PROPERTY
W(PB)
SciTegic.value.DoubleValue
-3.101

@<SCITEGIC>MOL_PROPERTY
W(SA)
SciTegic.value.DoubleValue
2.000

@<SCITEGIC>MOL_PROPERTY
Valence
SciTegic.value.DoubleValue
15.601

@<SCITEGIC>MOL_PROPERTY
Coulomb
SciTegic.value.DoubleValue
-10.573

@<SCITEGIC>MOL_PROPERTY
VdW
SciTegic.value.DoubleValue
3.427

@<SCITEGIC>MOL_PROPERTY
VdW6
SciTegic.value.DoubleValue
-11.360

@<SCITEGIC>MOL_PROPERTY
VdW12
SciTegic.value.DoubleValue
14.787

@<SCITEGIC>MOL_PROPERTY
Bond
SciTegic.value.DoubleValue
0.471

@<SCITEGIC>MOL_PROPERTY
Angle
SciTegic.value.DoubleValue
5.445

@<SCITEGIC>MOL_PROPERTY
Pdih
SciTegic.value.DoubleValue
9.685

@<SCITEGIC>MOL_PROPERTY
Idih
SciTegic.value.DoubleValue
0.000

@<SCITEGIC>MOL_PROPERTY
Tether
SciTegic.value.DoubleValue
0.000

@<TRIPOS>MOLECULE
guest-5_confgen4.mol2 : confsearch ligand conformer 81
          22          22           1
SMALL
USER_CHARGES
 
@<TRIPOS>ATOM
       1    C1      18.472651   18.813371   22.422437 C.3        1 MOL1        -0.1685
       2    H1      18.579523   19.052219   21.356458 H          1 MOL1         0.0832
       3    H2      17.521676   18.268808   22.498661 H          1 MOL1         0.0832
       4    C2      18.358510   20.122731   23.243842 C.3        1 MOL1        -0.1685
       5    H3      17.482445   20.671222   22.871628 H          1 MOL1         0.0832
       6    H4      18.134911   19.881063   24.291804 H          1 MOL1         0.0832
       7    C3      19.584441   21.076066   23.190072 C.3        1 MOL1        -0.1685
       8    H5      20.165528   20.994604   24.117821 H          1 MOL1         0.0832
       9    H6      19.213926   22.110096   23.178490 H          1 MOL1         0.0832
      10    C4      20.523462   20.870878   21.971939 C.3        1 MOL1        -0.1761
      11    H7      19.927565   20.889673   21.050972 H          1 MOL1         0.0832
      12    H8      21.186136   21.743547   21.896442 H          1 MOL1         0.0832
      13    C5      21.391912   19.578890   21.992699 C.3        1 MOL1         0.1218
      14    H9      21.327437   19.111328   20.999575 H          1 MOL1         0.0789
      15    C6      21.002036   18.518026   23.052333 C.3        1 MOL1        -0.1761
      16    H10     21.754854   17.719081   23.049177 H          1 MOL1         0.0832
      17    H11     21.058808   18.959298   24.054653 H          1 MOL1         0.0832
      18    C7      19.612726   17.861720   22.855137 C.3        1 MOL1        -0.1685
      19    H12     19.698793   17.066992   22.101602 H          1 MOL1         0.0832
      20    H13     19.328411   17.360616   23.790407 H          1 MOL1         0.0832
      21    O1      22.744161   19.948762   22.237225 O.3        1 MOL1        -0.5509
      22    H14     23.275341   19.126813   22.187963 H          1 MOL1         0.3779
@<TRIPOS>BOND
    1     1     2    1
    2     1     3    1
    3     1     4    1
    4     4     5    1
    5     4     6    1
    6     4     7    1
    7     7     8    1
    8     7     9    1
    9     7    10    1
   10    10    11    1
   11    10    12    1
   12    10    13    1
   13    13    14    1
   14    13    15    1
   15    15    16    1
   16    15    17    1
   17     1    18    1
   18    15    18    1
   19    18    19    1
   20    18    20    1
   21    13    21    1
   22    21    22    1
@<TRIPOS>SUBSTRUCTURE
       1 MOL1            1 RESIDUE      1      MOL     
@<SCITEGIC>MOL_PROPERTY
VConf Rank
SciTegic.value.IntegerValue
81

@<SCITEGIC>MOL_PROPERTY
Conf_Id
SciTegic.value.IntegerValue
141

@<SCITEGIC>MOL_PROPERTY
Delta U+W
SciTegic.value.DoubleValue
0.000

@<SCITEGIC>MOL_PROPERTY
U+W
SciTegic.value.DoubleValue
6.423

@<SCITEGIC>MOL_PROPERTY
Grad RMS
SciTegic.value.DoubleValue
0.000000

@<SCITEGIC>MOL_PROPERTY
U
SciTegic.value.DoubleValue
8.781

@<SCITEGIC>MOL_PROPERTY
W
SciTegic.value.DoubleValue
-2.358

@<SCITEGIC>MOL_PROPERTY
W(PB)
SciTegic.value.DoubleValue
-4.373

@<SCITEGIC>MOL_PROPERTY
W(SA)
SciTegic.value.DoubleValue
2.015

@<SCITEGIC>MOL_PROPERTY
Valence
SciTegic.value.DoubleValue
13.328

@<SCITEGIC>MOL_PROPERTY
Coulomb
SciTegic.value.DoubleValue
-8.387

@<SCITEGIC>MOL_PROPERTY
VdW
SciTegic.value.DoubleValue
3.840

@<SCITEGIC>MOL_PROPERTY
VdW6
SciTegic.value.DoubleValue
-9.744

@<SCITEGIC>MOL_PROPERTY
VdW12
SciTegic.value.DoubleValue
13.584

@<SCITEGIC>MOL_PROPERTY
Bond
SciTegic.value.DoubleValue
0.436

@<SCITEGIC>MOL_PROPERTY
Angle
SciTegic.value.DoubleValue
3.478

@<SCITEGIC>MOL_PROPERTY
Pdih
SciTegic.value.DoubleValue
9.415

@<SCITEGIC>MOL_PROPERTY
Idih
SciTegic.value.DoubleValue
0.000

@<SCITEGIC>MOL_PROPERTY
Tether
SciTegic.value.DoubleValue
0.000

@<TRIPOS>MOLECULE
guest-5_confgen4.mol2 : confsearch ligand conformer 82
          22          22           1
SMALL
USER_CHARGES
 
@<TRIPOS>ATOM
       1    C1      20.614988   18.156144   21.919835 C.3        1 MOL1        -0.1685
       2    H1      20.562488   18.657321   20.943785 H          1 MOL1         0.0832
       3    H2      21.059430   17.169376   21.730986 H          1 MOL1         0.0832
       4    C2      19.199128   17.929689   22.502685 C.3        1 MOL1        -0.1685
       5    H3      18.682316   17.181822   21.885874 H          1 MOL1         0.0832
       6    H4      19.284204   17.484002   23.503187 H          1 MOL1         0.0832
       7    C3      18.308032   19.190828   22.578886 C.3        1 MOL1        -0.1685
       8    H5      17.364176   18.914117   23.068163 H          1 MOL1         0.0832
       9    H6      18.036876   19.507938   21.562581 H          1 MOL1         0.0832
      10    C4      18.929225   20.385402   23.343277 C.3        1 MOL1        -0.1761
      11    H7      18.129158   21.114803   23.525900 H          1 MOL1         0.0832
      12    H8      19.285766   20.069144   24.332143 H          1 MOL1         0.0832
      13    C5      20.064815   21.073655   22.553106 C.3        1 MOL1         0.1218
      14    H9      19.830945   21.001585   21.481213 H          1 MOL1         0.0789
      15    C6      21.467489   20.467104   22.785268 C.3        1 MOL1        -0.1761
      16    H10     22.112942   20.800750   21.962517 H          1 MOL1         0.0832
      17    H11     21.901081   20.893755   23.699641 H          1 MOL1         0.0832
      18    C7      21.547896   18.923260   22.885889 C.3        1 MOL1        -0.1685
      19    H12     22.586866   18.624106   22.691280 H          1 MOL1         0.0832
      20    H13     21.340679   18.611068   23.918510 H          1 MOL1         0.0832
      21    O1      20.112081   22.446897   22.920788 O.3        1 MOL1        -0.5509
      22    H14     19.238478   22.829745   22.695259 H          1 MOL1         0.3779
@<TRIPOS>BOND
    1     1     2    1
    2     1     3    1
    3     1     4    1
    4     4     5    1
    5     4     6    1
    6     4     7    1
    7     7     8    1
    8     7     9    1
    9     7    10    1
   10    10    11    1
   11    10    12    1
   12    10    13    1
   13    13    14    1
   14    13    15    1
   15    15    16    1
   16    15    17    1
   17     1    18    1
   18    15    18    1
   19    18    19    1
   20    18    20    1
   21    13    21    1
   22    21    22    1
@<TRIPOS>SUBSTRUCTURE
       1 MOL1            1 RESIDUE      1      MOL     
@<SCITEGIC>MOL_PROPERTY
VConf Rank
SciTegic.value.IntegerValue
82

@<SCITEGIC>MOL_PROPERTY
Conf_Id
SciTegic.value.IntegerValue
144

@<SCITEGIC>MOL_PROPERTY
Delta U+W
SciTegic.value.DoubleValue
-3.291

@<SCITEGIC>MOL_PROPERTY
U+W
SciTegic.value.DoubleValue
3.132

@<SCITEGIC>MOL_PROPERTY
Grad RMS
SciTegic.value.DoubleValue
0.000000

@<SCITEGIC>MOL_PROPERTY
U
SciTegic.value.DoubleValue
5.411

@<SCITEGIC>MOL_PROPERTY
W
SciTegic.value.DoubleValue
-2.279

@<SCITEGIC>MOL_PROPERTY
W(PB)
SciTegic.value.DoubleValue
-4.300

@<SCITEGIC>MOL_PROPERTY
W(SA)
SciTegic.value.DoubleValue
2.021

@<SCITEGIC>MOL_PROPERTY
Valence
SciTegic.value.DoubleValue
11.909

@<SCITEGIC>MOL_PROPERTY
Coulomb
SciTegic.value.DoubleValue
-8.733

@<SCITEGIC>MOL_PROPERTY
VdW
SciTegic.value.DoubleValue
2.236

@<SCITEGIC>MOL_PROPERTY
VdW6
SciTegic.value.DoubleValue
-8.936

@<SCITEGIC>MOL_PROPERTY
VdW12
SciTegic.value.DoubleValue
11.172

@<SCITEGIC>MOL_PROPERTY
Bond
SciTegic.value.DoubleValue
0.223

@<SCITEGIC>MOL_PROPERTY
Angle
SciTegic.value.DoubleValue
2.457

@<SCITEGIC>MOL_PROPERTY
Pdih
SciTegic.value.DoubleValue
9.228

@<SCITEGIC>MOL_PROPERTY
Idih
SciTegic.value.DoubleValue
0.000

@<SCITEGIC>MOL_PROPERTY
Tether
SciTegic.value.DoubleValue
0.000

@<TRIPOS>MOLECULE
guest-5_confgen4.mol2 : confsearch ligand conformer 83
          22          22           1
SMALL
USER_CHARGES
 
@<TRIPOS>ATOM
       1    C1      19.683658   18.155409   21.661238 C.3        1 MOL1        -0.1685
       2    H1      19.237375   17.335366   21.082229 H          1 MOL1         0.0832
       3    H2      20.771422   18.046657   21.553429 H          1 MOL1         0.0832
       4    C2      19.256549   17.985934   23.138036 C.3        1 MOL1        -0.1685
       5    H3      18.253088   18.410041   23.279358 H          1 MOL1         0.0832
       6    H4      19.155077   16.914312   23.357873 H          1 MOL1         0.0832
       7    C3      20.228997   18.595493   24.176643 C.3        1 MOL1        -0.1685
       8    H5      21.036488   17.877403   24.374684 H          1 MOL1         0.0832
       9    H6      19.689132   18.706594   25.127022 H          1 MOL1         0.0832
      10    C4      20.872505   19.952995   23.800841 C.3        1 MOL1        -0.1761
      11    H7      21.250606   20.412444   24.724104 H          1 MOL1         0.0832
      12    H8      21.755961   19.772130   23.174992 H          1 MOL1         0.0832
      13    C5      19.930271   20.943395   23.080497 C.3        1 MOL1         0.1218
      14    H9      18.907710   20.825840   23.466527 H          1 MOL1         0.0789
      15    C6      19.930657   20.752629   21.546683 C.3        1 MOL1        -0.1761
      16    H10     19.455512   21.627670   21.083356 H          1 MOL1         0.0832
      17    H11     20.965088   20.739255   21.179450 H          1 MOL1         0.0832
      18    C7      19.196904   19.487511   21.041908 C.3        1 MOL1        -0.1685
      19    H12     18.117983   19.598373   21.216730 H          1 MOL1         0.0832
      20    H13     19.319092   19.432117   19.951592 H          1 MOL1         0.0832
      21    O1      20.375874   22.264685   23.355894 O.3        1 MOL1        -0.5509
      22    H14     21.286126   22.329373   23.000343 H          1 MOL1         0.3779
@<TRIPOS>BOND
    1     1     2    1
    2     1     3    1
    3     1     4    1
    4     4     5    1
    5     4     6    1
    6     4     7    1
    7     7     8    1
    8     7     9    1
    9     7    10    1
   10    10    11    1
   11    10    12    1
   12    10    13    1
   13    13    14    1
   14    13    15    1
   15    15    16    1
   16    15    17    1
   17     1    18    1
   18    15    18    1
   19    18    19    1
   20    18    20    1
   21    13    21    1
   22    21    22    1
@<TRIPOS>SUBSTRUCTURE
       1 MOL1            1 RESIDUE      1      MOL     
@<SCITEGIC>MOL_PROPERTY
VConf Rank
SciTegic.value.IntegerValue
83

@<SCITEGIC>MOL_PROPERTY
Conf_Id
SciTegic.value.IntegerValue
76

@<SCITEGIC>MOL_PROPERTY
Delta U+W
SciTegic.value.DoubleValue
-3.175

@<SCITEGIC>MOL_PROPERTY
U+W
SciTegic.value.DoubleValue
3.248

@<SCITEGIC>MOL_PROPERTY
Grad RMS
SciTegic.value.DoubleValue
0.000000

@<SCITEGIC>MOL_PROPERTY
U
SciTegic.value.DoubleValue
5.336

@<SCITEGIC>MOL_PROPERTY
W
SciTegic.value.DoubleValue
-2.088

@<SCITEGIC>MOL_PROPERTY
W(PB)
SciTegic.value.DoubleValue
-4.098

@<SCITEGIC>MOL_PROPERTY
W(SA)
SciTegic.value.DoubleValue
2.010

@<SCITEGIC>MOL_PROPERTY
Valence
SciTegic.value.DoubleValue
12.390

@<SCITEGIC>MOL_PROPERTY
Coulomb
SciTegic.value.DoubleValue
-9.270

@<SCITEGIC>MOL_PROPERTY
VdW
SciTegic.value.DoubleValue
2.216

@<SCITEGIC>MOL_PROPERTY
VdW6
SciTegic.value.DoubleValue
-8.967

@<SCITEGIC>MOL_PROPERTY
VdW12
SciTegic.value.DoubleValue
11.183

@<SCITEGIC>MOL_PROPERTY
Bond
SciTegic.value.DoubleValue
0.218

@<SCITEGIC>MOL_PROPERTY
Angle
SciTegic.value.DoubleValue
2.426

@<SCITEGIC>MOL_PROPERTY
Pdih
SciTegic.value.DoubleValue
9.745

@<SCITEGIC>MOL_PROPERTY
Idih
SciTegic.value.DoubleValue
0.000

@<SCITEGIC>MOL_PROPERTY
Tether
SciTegic.value.DoubleValue
0.000

@<TRIPOS>MOLECULE
guest-5_confgen4.mol2 : confsearch ligand conformer 84
          22          22           1
SMALL
USER_CHARGES
 
@<TRIPOS>ATOM
       1    C1      21.559912   20.678703   22.879676 C.3        1 MOL1        -0.1685
       2    H1      22.185030   20.805483   23.774067 H          1 MOL1         0.0832
       3    H2      22.036760   21.281545   22.094812 H          1 MOL1         0.0832
       4    C2      20.159678   21.264634   23.180850 C.3        1 MOL1        -0.1685
       5    H3      19.893795   21.059861   24.226725 H          1 MOL1         0.0832
       6    H4      20.225686   22.358454   23.103497 H          1 MOL1         0.0832
       7    C3      19.027451   20.763089   22.254537 C.3        1 MOL1        -0.1685
       8    H5      19.387853   20.638630   21.224267 H          1 MOL1         0.0832
       9    H6      18.251084   21.538917   22.214073 H          1 MOL1         0.0832
      10    C4      18.365304   19.459279   22.768074 C.3        1 MOL1        -0.1761
      11    H7      18.080807   19.589263   23.820062 H          1 MOL1         0.0832
      12    H8      17.423477   19.307240   22.224696 H          1 MOL1         0.0832
      13    C5      19.205282   18.168553   22.635552 C.3        1 MOL1         0.1218
      14    H9      18.677627   17.387411   23.201676 H          1 MOL1         0.0789
      15    C6      20.641967   18.255282   23.209051 C.3        1 MOL1        -0.1761
      16    H10     20.603270   18.543602   24.267471 H          1 MOL1         0.0832
      17    H11     21.066273   17.243101   23.193501 H          1 MOL1         0.0832
      18    C7      21.603678   19.196413   22.437947 C.3        1 MOL1        -0.1685
      19    H12     22.632682   18.835654   22.569956 H          1 MOL1         0.0832
      20    H13     21.409359   19.132042   21.359273 H          1 MOL1         0.0832
      21    O1      19.247019   17.773523   21.267988 O.3        1 MOL1        -0.5509
      22    H14     19.828224   16.987130   21.222478 H          1 MOL1         0.3779
@<TRIPOS>BOND
    1     1     2    1
    2     1     3    1
    3     1     4    1
    4     4     5    1
    5     4     6    1
    6     4     7    1
    7     7     8    1
    8     7     9    1
    9     7    10    1
   10    10    11    1
   11    10    12    1
   12    10    13    1
   13    13    14    1
   14    13    15    1
   15    15    16    1
   16    15    17    1
   17     1    18    1
   18    15    18    1
   19    18    19    1
   20    18    20    1
   21    13    21    1
   22    21    22    1
@<TRIPOS>SUBSTRUCTURE
       1 MOL1            1 RESIDUE      1      MOL     
@<SCITEGIC>MOL_PROPERTY
VConf Rank
SciTegic.value.IntegerValue
84

@<SCITEGIC>MOL_PROPERTY
Conf_Id
SciTegic.value.IntegerValue
95

@<SCITEGIC>MOL_PROPERTY
Delta U+W
SciTegic.value.DoubleValue
-2.289

@<SCITEGIC>MOL_PROPERTY
U+W
SciTegic.value.DoubleValue
4.134

@<SCITEGIC>MOL_PROPERTY
Grad RMS
SciTegic.value.DoubleValue
0.000000

@<SCITEGIC>MOL_PROPERTY
U
SciTegic.value.DoubleValue
6.373

@<SCITEGIC>MOL_PROPERTY
W
SciTegic.value.DoubleValue
-2.240

@<SCITEGIC>MOL_PROPERTY
W(PB)
SciTegic.value.DoubleValue
-4.254

@<SCITEGIC>MOL_PROPERTY
W(SA)
SciTegic.value.DoubleValue
2.015

@<SCITEGIC>MOL_PROPERTY
Valence
SciTegic.value.DoubleValue
12.093

@<SCITEGIC>MOL_PROPERTY
Coulomb
SciTegic.value.DoubleValue
-8.058

@<SCITEGIC>MOL_PROPERTY
VdW
SciTegic.value.DoubleValue
2.339

@<SCITEGIC>MOL_PROPERTY
VdW6
SciTegic.value.DoubleValue
-9.683

@<SCITEGIC>MOL_PROPERTY
VdW12
SciTegic.value.DoubleValue
12.022

@<SCITEGIC>MOL_PROPERTY
Bond
SciTegic.value.DoubleValue
0.268

@<SCITEGIC>MOL_PROPERTY
Angle
SciTegic.value.DoubleValue
3.005

@<SCITEGIC>MOL_PROPERTY
Pdih
SciTegic.value.DoubleValue
8.820

@<SCITEGIC>MOL_PROPERTY
Idih
SciTegic.value.DoubleValue
0.000

@<SCITEGIC>MOL_PROPERTY
Tether
SciTegic.value.DoubleValue
0.000

@<TRIPOS>MOLECULE
guest-5_confgen4.mol2 : confsearch ligand conformer 85
          22          22           1
SMALL
USER_CHARGES
 
@<TRIPOS>ATOM
       1    C1      21.837084   19.890094   22.096346 C.3        1 MOL1        -0.1685
       2    H1      22.542089   20.680082   22.388992 H          1 MOL1         0.0832
       3    H2      22.387091   19.243141   21.399399 H          1 MOL1         0.0832
       4    C2      20.657149   20.549215   21.342925 C.3        1 MOL1        -0.1685
       5    H3      20.435753   21.526381   21.793047 H          1 MOL1         0.0832
       6    H4      20.987970   20.766565   20.318174 H          1 MOL1         0.0832
       7    C3      19.363209   19.704352   21.284252 C.3        1 MOL1        -0.1685
       8    H5      19.595310   18.637711   21.160855 H          1 MOL1         0.0832
       9    H6      18.803864   20.000548   20.386574 H          1 MOL1         0.0832
      10    C4      18.443909   19.933466   22.510508 C.3        1 MOL1        -0.1761
      11    H7      18.302186   21.012148   22.656302 H          1 MOL1         0.0832
      12    H8      17.446356   19.537478   22.280154 H          1 MOL1         0.0832
      13    C5      18.918456   19.312334   23.844200 C.3        1 MOL1         0.1218
      14    H9      18.260898   19.709174   24.631116 H          1 MOL1         0.0789
      15    C6      20.372918   19.658585   24.250382 C.3        1 MOL1        -0.1761
      16    H10     20.495299   20.747441   24.312868 H          1 MOL1         0.0832
      17    H11     20.523446   19.280958   25.269974 H          1 MOL1         0.0832
      18    C7      21.473774   19.049328   23.343539 C.3        1 MOL1        -0.1685
      19    H12     22.387248   18.916659   23.938671 H          1 MOL1         0.0832
      20    H13     21.182298   18.037928   23.030919 H          1 MOL1         0.0832
      21    O1      18.747532   17.899118   23.794218 O.3        1 MOL1        -0.5509
      22    H14     17.822499   17.737110   23.518077 H          1 MOL1         0.3779
@<TRIPOS>BOND
    1     1     2    1
    2     1     3    1
    3     1     4    1
    4     4     5    1
    5     4     6    1
    6     4     7    1
    7     7     8    1
    8     7     9    1
    9     7    10    1
   10    10    11    1
   11    10    12    1
   12    10    13    1
   13    13    14    1
   14    13    15    1
   15    15    16    1
   16    15    17    1
   17     1    18    1
   18    15    18    1
   19    18    19    1
   20    18    20    1
   21    13    21    1
   22    21    22    1
@<TRIPOS>SUBSTRUCTURE
       1 MOL1            1 RESIDUE      1      MOL     
@<SCITEGIC>MOL_PROPERTY
VConf Rank
SciTegic.value.IntegerValue
85

@<SCITEGIC>MOL_PROPERTY
Conf_Id
SciTegic.value.IntegerValue
41

@<SCITEGIC>MOL_PROPERTY
Delta U+W
SciTegic.value.DoubleValue
-2.114

@<SCITEGIC>MOL_PROPERTY
U+W
SciTegic.value.DoubleValue
4.310

@<SCITEGIC>MOL_PROPERTY
Grad RMS
SciTegic.value.DoubleValue
0.000000

@<SCITEGIC>MOL_PROPERTY
U
SciTegic.value.DoubleValue
6.598

@<SCITEGIC>MOL_PROPERTY
W
SciTegic.value.DoubleValue
-2.289

@<SCITEGIC>MOL_PROPERTY
W(PB)
SciTegic.value.DoubleValue
-4.294

@<SCITEGIC>MOL_PROPERTY
W(SA)
SciTegic.value.DoubleValue
2.005

@<SCITEGIC>MOL_PROPERTY
Valence
SciTegic.value.DoubleValue
12.082

@<SCITEGIC>MOL_PROPERTY
Coulomb
SciTegic.value.DoubleValue
-7.801

@<SCITEGIC>MOL_PROPERTY
VdW
SciTegic.value.DoubleValue
2.317

@<SCITEGIC>MOL_PROPERTY
VdW6
SciTegic.value.DoubleValue
-9.658

@<SCITEGIC>MOL_PROPERTY
VdW12
SciTegic.value.DoubleValue
11.975

@<SCITEGIC>MOL_PROPERTY
Bond
SciTegic.value.DoubleValue
0.267

@<SCITEGIC>MOL_PROPERTY
Angle
SciTegic.value.DoubleValue
3.051

@<SCITEGIC>MOL_PROPERTY
Pdih
SciTegic.value.DoubleValue
8.764

@<SCITEGIC>MOL_PROPERTY
Idih
SciTegic.value.DoubleValue
0.000

@<SCITEGIC>MOL_PROPERTY
Tether
SciTegic.value.DoubleValue
0.000

@<TRIPOS>MOLECULE
guest-5_confgen4.mol2 : confsearch ligand conformer 86
          22          22           1
SMALL
USER_CHARGES
 
@<TRIPOS>ATOM
       1    C1      19.525046   18.220844   23.567997 C.3        1 MOL1        -0.1685
       2    H1      19.206978   17.504069   24.337163 H          1 MOL1         0.0832
       3    H2      19.059530   17.891574   22.628820 H          1 MOL1         0.0832
       4    C2      21.065442   18.154947   23.466871 C.3        1 MOL1        -0.1685
       5    H3      21.511515   18.546202   24.391273 H          1 MOL1         0.0832
       6    H4      21.368398   17.100699   23.409097 H          1 MOL1         0.0832
       7    C3      21.663626   18.897196   22.251773 C.3        1 MOL1        -0.1685
       8    H5      21.384476   18.371638   21.328868 H          1 MOL1         0.0832
       9    H6      22.757473   18.821269   22.313891 H          1 MOL1         0.0832
      10    C4      21.283743   20.398905   22.143397 C.3        1 MOL1        -0.1761
      11    H7      21.490677   20.909267   23.092590 H          1 MOL1         0.0832
      12    H8      21.955198   20.858959   21.407135 H          1 MOL1         0.0832
      13    C5      19.832404   20.700970   21.689080 C.3        1 MOL1         0.1218
      14    H9      19.817490   21.749446   21.357789 H          1 MOL1         0.0789
      15    C6      18.741222   20.579474   22.784388 C.3        1 MOL1        -0.1761
      16    H10     18.566905   21.579933   23.201230 H          1 MOL1         0.0832
      17    H11     17.791454   20.294349   22.313097 H          1 MOL1         0.0832
      18    C7      19.012752   19.621362   23.970640 C.3        1 MOL1        -0.1685
      19    H12     19.717327   20.087276   24.672717 H          1 MOL1         0.0832
      20    H13     18.074272   19.504728   24.529503 H          1 MOL1         0.0832
      21    O1      19.481506   19.890635   20.570532 O.3        1 MOL1        -0.5509
      22    H14     18.576451   20.151888   20.304957 H          1 MOL1         0.3779
@<TRIPOS>BOND
    1     1     2    1
    2     1     3    1
    3     1     4    1
    4     4     5    1
    5     4     6    1
    6     4     7    1
    7     7     8    1
    8     7     9    1
    9     7    10    1
   10    10    11    1
   11    10    12    1
   12    10    13    1
   13    13    14    1
   14    13    15    1
   15    15    16    1
   16    15    17    1
   17     1    18    1
   18    15    18    1
   19    18    19    1
   20    18    20    1
   21    13    21    1
   22    21    22    1
@<TRIPOS>SUBSTRUCTURE
       1 MOL1            1 RESIDUE      1      MOL     
@<SCITEGIC>MOL_PROPERTY
VConf Rank
SciTegic.value.IntegerValue
86

@<SCITEGIC>MOL_PROPERTY
Conf_Id
SciTegic.value.IntegerValue
104

@<SCITEGIC>MOL_PROPERTY
Delta U+W
SciTegic.value.DoubleValue
-1.172

@<SCITEGIC>MOL_PROPERTY
U+W
SciTegic.value.DoubleValue
5.252

@<SCITEGIC>MOL_PROPERTY
Grad RMS
SciTegic.value.DoubleValue
0.000000

@<SCITEGIC>MOL_PROPERTY
U
SciTegic.value.DoubleValue
7.482

@<SCITEGIC>MOL_PROPERTY
W
SciTegic.value.DoubleValue
-2.230

@<SCITEGIC>MOL_PROPERTY
W(PB)
SciTegic.value.DoubleValue
-4.220

@<SCITEGIC>MOL_PROPERTY
W(SA)
SciTegic.value.DoubleValue
1.990

@<SCITEGIC>MOL_PROPERTY
Valence
SciTegic.value.DoubleValue
12.309

@<SCITEGIC>MOL_PROPERTY
Coulomb
SciTegic.value.DoubleValue
-7.084

@<SCITEGIC>MOL_PROPERTY
VdW
SciTegic.value.DoubleValue
2.258

@<SCITEGIC>MOL_PROPERTY
VdW6
SciTegic.value.DoubleValue
-9.770

@<SCITEGIC>MOL_PROPERTY
VdW12
SciTegic.value.DoubleValue
12.028

@<SCITEGIC>MOL_PROPERTY
Bond
SciTegic.value.DoubleValue
0.284

@<SCITEGIC>MOL_PROPERTY
Angle
SciTegic.value.DoubleValue
3.491

@<SCITEGIC>MOL_PROPERTY
Pdih
SciTegic.value.DoubleValue
8.535

@<SCITEGIC>MOL_PROPERTY
Idih
SciTegic.value.DoubleValue
0.000

@<SCITEGIC>MOL_PROPERTY
Tether
SciTegic.value.DoubleValue
0.000

@<TRIPOS>MOLECULE
guest-5_confgen4.mol2 : confsearch ligand conformer 87
          22          22           1
SMALL
USER_CHARGES
 
@<TRIPOS>ATOM
       1    C1      20.611249   21.120254   22.908167 C.3        1 MOL1        -0.1685
       2    H1      19.623047   21.494457   23.208019 H          1 MOL1         0.0832
       3    H2      21.284659   21.987758   22.938083 H          1 MOL1         0.0832
       4    C2      20.584377   20.592534   21.455489 C.3        1 MOL1        -0.1685
       5    H3      20.640684   21.449626   20.770308 H          1 MOL1         0.0832
       6    H4      21.497079   20.013898   21.261859 H          1 MOL1         0.0832
       7    C3      19.337086   19.758930   21.066843 C.3        1 MOL1        -0.1685
       8    H5      19.610332   19.089120   20.239796 H          1 MOL1         0.0832
       9    H6      18.580070   20.438889   20.652705 H          1 MOL1         0.0832
      10    C4      18.656857   18.930197   22.190094 C.3        1 MOL1        -0.1761
      11    H7      18.035848   19.597091   22.802103 H          1 MOL1         0.0832
      12    H8      17.951915   18.233807   21.717759 H          1 MOL1         0.0832
      13    C5      19.582078   18.117201   23.124430 C.3        1 MOL1         0.1218
      14    H9      18.974700   17.316313   23.570021 H          1 MOL1         0.0789
      15    C6      20.141434   18.957367   24.294692 C.3        1 MOL1        -0.1761
      16    H10     19.299880   19.398123   24.844766 H          1 MOL1         0.0832
      17    H11     20.631776   18.275467   25.001673 H          1 MOL1         0.0832
      18    C7      21.141567   20.080233   23.923617 C.3        1 MOL1        -0.1685
      19    H12     21.412666   20.608074   24.848063 H          1 MOL1         0.0832
      20    H13     22.075870   19.638721   23.551295 H          1 MOL1         0.0832
      21    O1      20.646153   17.534042   22.388333 O.3        1 MOL1        -0.5509
      22    H14     21.084384   18.295420   21.958747 H          1 MOL1         0.3779
@<TRIPOS>BOND
    1     1     2    1
    2     1     3    1
    3     1     4    1
    4     4     5    1
    5     4     6    1
    6     4     7    1
    7     7     8    1
    8     7     9    1
    9     7    10    1
   10    10    11    1
   11    10    12    1
   12    10    13    1
   13    13    14    1
   14    13    15    1
   15    15    16    1
   16    15    17    1
   17     1    18    1
   18    15    18    1
   19    18    19    1
   20    18    20    1
   21    13    21    1
   22    21    22    1
@<TRIPOS>SUBSTRUCTURE
       1 MOL1            1 RESIDUE      1      MOL     
@<SCITEGIC>MOL_PROPERTY
VConf Rank
SciTegic.value.IntegerValue
87

@<SCITEGIC>MOL_PROPERTY
Conf_Id
SciTegic.value.IntegerValue
99

@<SCITEGIC>MOL_PROPERTY
Delta U+W
SciTegic.value.DoubleValue
-3.852

@<SCITEGIC>MOL_PROPERTY
U+W
SciTegic.value.DoubleValue
2.572

@<SCITEGIC>MOL_PROPERTY
Grad RMS
SciTegic.value.DoubleValue
0.000000

@<SCITEGIC>MOL_PROPERTY
U
SciTegic.value.DoubleValue
3.922

@<SCITEGIC>MOL_PROPERTY
W
SciTegic.value.DoubleValue
-1.350

@<SCITEGIC>MOL_PROPERTY
W(PB)
SciTegic.value.DoubleValue
-3.345

@<SCITEGIC>MOL_PROPERTY
W(SA)
SciTegic.value.DoubleValue
1.995

@<SCITEGIC>MOL_PROPERTY
Valence
SciTegic.value.DoubleValue
12.571

@<SCITEGIC>MOL_PROPERTY
Coulomb
SciTegic.value.DoubleValue
-10.581

@<SCITEGIC>MOL_PROPERTY
VdW
SciTegic.value.DoubleValue
1.932

@<SCITEGIC>MOL_PROPERTY
VdW6
SciTegic.value.DoubleValue
-10.483

@<SCITEGIC>MOL_PROPERTY
VdW12
SciTegic.value.DoubleValue
12.415

@<SCITEGIC>MOL_PROPERTY
Bond
SciTegic.value.DoubleValue
0.268

@<SCITEGIC>MOL_PROPERTY
Angle
SciTegic.value.DoubleValue
3.728

@<SCITEGIC>MOL_PROPERTY
Pdih
SciTegic.value.DoubleValue
8.575

@<SCITEGIC>MOL_PROPERTY
Idih
SciTegic.value.DoubleValue
0.000

@<SCITEGIC>MOL_PROPERTY
Tether
SciTegic.value.DoubleValue
0.000

@<TRIPOS>MOLECULE
guest-5_confgen4.mol2 : confsearch ligand conformer 88
          22          22           1
SMALL
USER_CHARGES
 
@<TRIPOS>ATOM
       1    C1      18.458013   19.608481   23.083683 C.3        1 MOL1        -0.1685
       2    H1      17.645351   19.649245   23.822067 H          1 MOL1         0.0832
       3    H2      17.953325   19.573406   22.108945 H          1 MOL1         0.0832
       4    C2      19.254807   18.292518   23.322871 C.3        1 MOL1        -0.1685
       5    H3      18.786922   17.763614   24.164676 H          1 MOL1         0.0832
       6    H4      19.137571   17.617803   22.464344 H          1 MOL1         0.0832
       7    C3      20.760840   18.460399   23.649110 C.3        1 MOL1        -0.1685
       8    H5      21.153223   17.490188   23.982956 H          1 MOL1         0.0832
       9    H6      20.880311   19.119678   24.517814 H          1 MOL1         0.0832
      10    C4      21.658747   18.960562   22.483593 C.3        1 MOL1        -0.1761
      11    H7      22.565282   19.404122   22.915090 H          1 MOL1         0.0832
      12    H8      22.005598   18.088042   21.914032 H          1 MOL1         0.0832
      13    C5      21.054004   19.966564   21.473442 C.3        1 MOL1         0.1218
      14    H9      21.889571   20.364594   20.880000 H          1 MOL1         0.0789
      15    C6      20.312475   21.183701   22.079129 C.3        1 MOL1        -0.1761
      16    H10     21.059888   21.890138   22.462613 H          1 MOL1         0.0832
      17    H11     19.812119   21.709726   21.255151 H          1 MOL1         0.0832
      18    C7      19.269071   20.924216   23.201082 C.3        1 MOL1        -0.1685
      19    H12     19.759883   20.970509   24.181147 H          1 MOL1         0.0832
      20    H13     18.563992   21.766575   23.205483 H          1 MOL1         0.0832
      21    O1      20.192740   19.282008   20.577423 O.3        1 MOL1        -0.5509
      22    H14     19.472140   18.949812   21.149537 H          1 MOL1         0.3779
@<TRIPOS>BOND
    1     1     2    1
    2     1     3    1
    3     1     4    1
    4     4     5    1
    5     4     6    1
    6     4     7    1
    7     7     8    1
    8     7     9    1
    9     7    10    1
   10    10    11    1
   11    10    12    1
   12    10    13    1
   13    13    14    1
   14    13    15    1
   15    15    16    1
   16    15    17    1
   17     1    18    1
   18    15    18    1
   19    18    19    1
   20    18    20    1
   21    13    21    1
   22    21    22    1
@<TRIPOS>SUBSTRUCTURE
       1 MOL1            1 RESIDUE      1      MOL     
@<SCITEGIC>MOL_PROPERTY
VConf Rank
SciTegic.value.IntegerValue
88

@<SCITEGIC>MOL_PROPERTY
Conf_Id
SciTegic.value.IntegerValue
98

@<SCITEGIC>MOL_PROPERTY
Delta U+W
SciTegic.value.DoubleValue
0.930

@<SCITEGIC>MOL_PROPERTY
U+W
SciTegic.value.DoubleValue
7.353

@<SCITEGIC>MOL_PROPERTY
Grad RMS
SciTegic.value.DoubleValue
0.000000

@<SCITEGIC>MOL_PROPERTY
U
SciTegic.value.DoubleValue
8.455

@<SCITEGIC>MOL_PROPERTY
W
SciTegic.value.DoubleValue
-1.102

@<SCITEGIC>MOL_PROPERTY
W(PB)
SciTegic.value.DoubleValue
-3.101

@<SCITEGIC>MOL_PROPERTY
W(SA)
SciTegic.value.DoubleValue
2.000

@<SCITEGIC>MOL_PROPERTY
Valence
SciTegic.value.DoubleValue
15.601

@<SCITEGIC>MOL_PROPERTY
Coulomb
SciTegic.value.DoubleValue
-10.573

@<SCITEGIC>MOL_PROPERTY
VdW
SciTegic.value.DoubleValue
3.427

@<SCITEGIC>MOL_PROPERTY
VdW6
SciTegic.value.DoubleValue
-11.360

@<SCITEGIC>MOL_PROPERTY
VdW12
SciTegic.value.DoubleValue
14.787

@<SCITEGIC>MOL_PROPERTY
Bond
SciTegic.value.DoubleValue
0.471

@<SCITEGIC>MOL_PROPERTY
Angle
SciTegic.value.DoubleValue
5.445

@<SCITEGIC>MOL_PROPERTY
Pdih
SciTegic.value.DoubleValue
9.685

@<SCITEGIC>MOL_PROPERTY
Idih
SciTegic.value.DoubleValue
0.000

@<SCITEGIC>MOL_PROPERTY
Tether
SciTegic.value.DoubleValue
0.000

@<TRIPOS>MOLECULE
guest-5_confgen4.mol2 : confsearch ligand conformer 89
          22          22           1
SMALL
USER_CHARGES
 
@<TRIPOS>ATOM
       1    C1      20.160426   17.988395   23.393114 C.3        1 MOL1        -0.1685
       2    H1      21.133371   18.320677   23.777494 H          1 MOL1         0.0832
       3    H2      20.016842   16.982916   23.811574 H          1 MOL1         0.0832
       4    C2      20.217975   17.876203   21.848362 C.3        1 MOL1        -0.1685
       5    H3      21.008932   17.155932   21.598418 H          1 MOL1         0.0832
       6    H4      19.284017   17.433138   21.476825 H          1 MOL1         0.0832
       7    C3      20.501488   19.193470   21.074364 C.3        1 MOL1        -0.1685
       8    H5      19.573357   19.576475   20.630635 H          1 MOL1         0.0832
       9    H6      21.146952   18.955378   20.218021 H          1 MOL1         0.0832
      10    C4      21.176433   20.313853   21.909171 C.3        1 MOL1        -0.1761
      11    H7      22.068734   19.907795   22.401657 H          1 MOL1         0.0832
      12    H8      21.559003   21.076453   21.217457 H          1 MOL1         0.0832
      13    C5      20.275138   21.005616   22.973596 C.3        1 MOL1         0.1218
      14    H9      20.848090   21.074412   23.909577 H          1 MOL1         0.0789
      15    C6      18.929483   20.302290   23.281497 C.3        1 MOL1        -0.1761
      16    H10     18.337444   20.943502   23.947375 H          1 MOL1         0.0832
      17    H11     18.336656   20.221177   22.362495 H          1 MOL1         0.0832
      18    C7      19.045761   18.907577   23.945622 C.3        1 MOL1        -0.1685
      19    H12     19.214881   19.039906   25.022981 H          1 MOL1         0.0832
      20    H13     18.078038   18.396078   23.853137 H          1 MOL1         0.0832
      21    O1      19.975007   22.321766   22.523208 O.3        1 MOL1        -0.5509
      22    H14     19.457230   22.752794   23.234756 H          1 MOL1         0.3779
@<TRIPOS>BOND
    1     1     2    1
    2     1     3    1
    3     1     4    1
    4     4     5    1
    5     4     6    1
    6     4     7    1
    7     7     8    1
    8     7     9    1
    9     7    10    1
   10    10    11    1
   11    10    12    1
   12    10    13    1
   13    13    14    1
   14    13    15    1
   15    15    16    1
   16    15    17    1
   17     1    18    1
   18    15    18    1
   19    18    19    1
   20    18    20    1
   21    13    21    1
   22    21    22    1
@<TRIPOS>SUBSTRUCTURE
       1 MOL1            1 RESIDUE      1      MOL     
@<SCITEGIC>MOL_PROPERTY
VConf Rank
SciTegic.value.IntegerValue
89

@<SCITEGIC>MOL_PROPERTY
Conf_Id
SciTegic.value.IntegerValue
141

@<SCITEGIC>MOL_PROPERTY
Delta U+W
SciTegic.value.DoubleValue
0.000

@<SCITEGIC>MOL_PROPERTY
U+W
SciTegic.value.DoubleValue
6.423

@<SCITEGIC>MOL_PROPERTY
Grad RMS
SciTegic.value.DoubleValue
0.000000

@<SCITEGIC>MOL_PROPERTY
U
SciTegic.value.DoubleValue
8.781

@<SCITEGIC>MOL_PROPERTY
W
SciTegic.value.DoubleValue
-2.358

@<SCITEGIC>MOL_PROPERTY
W(PB)
SciTegic.value.DoubleValue
-4.373

@<SCITEGIC>MOL_PROPERTY
W(SA)
SciTegic.value.DoubleValue
2.015

@<SCITEGIC>MOL_PROPERTY
Valence
SciTegic.value.DoubleValue
13.328

@<SCITEGIC>MOL_PROPERTY
Coulomb
SciTegic.value.DoubleValue
-8.387

@<SCITEGIC>MOL_PROPERTY
VdW
SciTegic.value.DoubleValue
3.840

@<SCITEGIC>MOL_PROPERTY
VdW6
SciTegic.value.DoubleValue
-9.744

@<SCITEGIC>MOL_PROPERTY
VdW12
SciTegic.value.DoubleValue
13.584

@<SCITEGIC>MOL_PROPERTY
Bond
SciTegic.value.DoubleValue
0.436

@<SCITEGIC>MOL_PROPERTY
Angle
SciTegic.value.DoubleValue
3.478

@<SCITEGIC>MOL_PROPERTY
Pdih
SciTegic.value.DoubleValue
9.415

@<SCITEGIC>MOL_PROPERTY
Idih
SciTegic.value.DoubleValue
0.000

@<SCITEGIC>MOL_PROPERTY
Tether
SciTegic.value.DoubleValue
0.000

@<TRIPOS>MOLECULE
guest-5_confgen4.mol2 : confsearch ligand conformer 90
          22          22           1
SMALL
USER_CHARGES
 
@<TRIPOS>ATOM
       1    C1      18.861863   20.276333   21.494550 C.3        1 MOL1        -0.1685
       2    H1      18.286122   19.342545   21.550859 H          1 MOL1         0.0832
       3    H2      18.302495   20.937675   20.818798 H          1 MOL1         0.0832
       4    C2      20.254421   20.030942   20.865091 C.3        1 MOL1        -0.1685
       5    H3      20.119391   19.777856   19.804633 H          1 MOL1         0.0832
       6    H4      20.829710   20.966765   20.877586 H          1 MOL1         0.0832
       7    C3      21.088343   18.909309   21.526032 C.3        1 MOL1        -0.1685
       8    H5      22.071709   18.880392   21.037174 H          1 MOL1         0.0832
       9    H6      20.621649   17.936763   21.317919 H          1 MOL1         0.0832
      10    C4      21.299458   19.063930   23.052041 C.3        1 MOL1        -0.1761
      11    H7      22.081509   18.354291   23.352527 H          1 MOL1         0.0832
      12    H8      21.686031   20.063350   23.290195 H          1 MOL1         0.0832
      13    C5      20.017821   18.771633   23.864198 C.3        1 MOL1         0.1218
      14    H9      19.442703   17.999355   23.333473 H          1 MOL1         0.0789
      15    C6      19.100701   19.997148   24.079367 C.3        1 MOL1        -0.1761
      16    H10     18.109528   19.622797   24.366224 H          1 MOL1         0.0832
      17    H11     19.463782   20.576263   24.938965 H          1 MOL1         0.0832
      18    C7      18.939401   20.962482   22.878469 C.3        1 MOL1        -0.1685
      19    H12     18.025418   21.551101   23.036545 H          1 MOL1         0.0832
      20    H13     19.761811   21.690734   22.879415 H          1 MOL1         0.0832
      21    O1      20.389473   18.269484   25.142063 O.3        1 MOL1        -0.5509
      22    H14     20.905721   17.451360   24.984648 H          1 MOL1         0.3779
@<TRIPOS>BOND
    1     1     2    1
    2     1     3    1
    3     1     4    1
    4     4     5    1
    5     4     6    1
    6     4     7    1
    7     7     8    1
    8     7     9    1
    9     7    10    1
   10    10    11    1
   11    10    12    1
   12    10    13    1
   13    13    14    1
   14    13    15    1
   15    15    16    1
   16    15    17    1
   17     1    18    1
   18    15    18    1
   19    18    19    1
   20    18    20    1
   21    13    21    1
   22    21    22    1
@<TRIPOS>SUBSTRUCTURE
       1 MOL1            1 RESIDUE      1      MOL     
@<SCITEGIC>MOL_PROPERTY
VConf Rank
SciTegic.value.IntegerValue
90

@<SCITEGIC>MOL_PROPERTY
Conf_Id
SciTegic.value.IntegerValue
144

@<SCITEGIC>MOL_PROPERTY
Delta U+W
SciTegic.value.DoubleValue
-3.291

@<SCITEGIC>MOL_PROPERTY
U+W
SciTegic.value.DoubleValue
3.132

@<SCITEGIC>MOL_PROPERTY
Grad RMS
SciTegic.value.DoubleValue
0.000000

@<SCITEGIC>MOL_PROPERTY
U
SciTegic.value.DoubleValue
5.411

@<SCITEGIC>MOL_PROPERTY
W
SciTegic.value.DoubleValue
-2.279

@<SCITEGIC>MOL_PROPERTY
W(PB)
SciTegic.value.DoubleValue
-4.300

@<SCITEGIC>MOL_PROPERTY
W(SA)
SciTegic.value.DoubleValue
2.021

@<SCITEGIC>MOL_PROPERTY
Valence
SciTegic.value.DoubleValue
11.909

@<SCITEGIC>MOL_PROPERTY
Coulomb
SciTegic.value.DoubleValue
-8.733

@<SCITEGIC>MOL_PROPERTY
VdW
SciTegic.value.DoubleValue
2.236

@<SCITEGIC>MOL_PROPERTY
VdW6
SciTegic.value.DoubleValue
-8.936

@<SCITEGIC>MOL_PROPERTY
VdW12
SciTegic.value.DoubleValue
11.172

@<SCITEGIC>MOL_PROPERTY
Bond
SciTegic.value.DoubleValue
0.223

@<SCITEGIC>MOL_PROPERTY
Angle
SciTegic.value.DoubleValue
2.457

@<SCITEGIC>MOL_PROPERTY
Pdih
SciTegic.value.DoubleValue
9.228

@<SCITEGIC>MOL_PROPERTY
Idih
SciTegic.value.DoubleValue
0.000

@<SCITEGIC>MOL_PROPERTY
Tether
SciTegic.value.DoubleValue
0.000

@<TRIPOS>MOLECULE
guest-5_confgen4.mol2 : confsearch ligand conformer 91
          22          22           1
SMALL
USER_CHARGES
 
@<TRIPOS>ATOM
       1    C1      18.749983   18.324452   22.932784 C.3        1 MOL1        -0.1685
       2    H1      18.073767   17.590228   23.391628 H          1 MOL1         0.0832
       3    H2      18.556652   18.281952   21.852275 H          1 MOL1         0.0832
       4    C2      20.203057   17.899977   23.249757 C.3        1 MOL1        -0.1685
       5    H3      20.475808   18.251624   24.254110 H          1 MOL1         0.0832
       6    H4      20.249876   16.803525   23.300737 H          1 MOL1         0.0832
       7    C3      21.263559   18.375234   22.227315 C.3        1 MOL1        -0.1685
       8    H5      21.289058   17.670355   21.385049 H          1 MOL1         0.0832
       9    H6      22.251733   18.307605   22.702664 H          1 MOL1         0.0832
      10    C4      21.075626   19.802312   21.656114 C.3        1 MOL1        -0.1761
      11    H7      22.035818   20.122399   21.229445 H          1 MOL1         0.0832
      12    H8      20.373540   19.763614   20.813219 H          1 MOL1         0.0832
      13    C5      20.589322   20.854266   22.678120 C.3        1 MOL1         0.1218
      14    H9      21.015185   20.631495   23.666798 H          1 MOL1         0.0789
      15    C6      19.048146   20.914259   22.778888 C.3        1 MOL1        -0.1761
      16    H10     18.766110   21.831219   23.313463 H          1 MOL1         0.0832
      17    H11     18.618521   21.005426   21.772808 H          1 MOL1         0.0832
      18    C7      18.390212   19.716744   23.504694 C.3        1 MOL1        -0.1685
      19    H12     18.649289   19.750872   24.571765 H          1 MOL1         0.0832
      20    H13     17.300068   19.843769   23.457381 H          1 MOL1         0.0832
      21    O1      21.049065   22.131729   22.257483 O.3        1 MOL1        -0.5509
      22    H14     20.651679   22.292569   21.376929 H          1 MOL1         0.3779
@<TRIPOS>BOND
    1     1     2    1
    2     1     3    1
    3     1     4    1
    4     4     5    1
    5     4     6    1
    6     4     7    1
    7     7     8    1
    8     7     9    1
    9     7    10    1
   10    10    11    1
   11    10    12    1
   12    10    13    1
   13    13    14    1
   14    13    15    1
   15    15    16    1
   16    15    17    1
   17     1    18    1
   18    15    18    1
   19    18    19    1
   20    18    20    1
   21    13    21    1
   22    21    22    1
@<TRIPOS>SUBSTRUCTURE
       1 MOL1            1 RESIDUE      1      MOL     
@<SCITEGIC>MOL_PROPERTY
VConf Rank
SciTegic.value.IntegerValue
91

@<SCITEGIC>MOL_PROPERTY
Conf_Id
SciTegic.value.IntegerValue
76

@<SCITEGIC>MOL_PROPERTY
Delta U+W
SciTegic.value.DoubleValue
-3.175

@<SCITEGIC>MOL_PROPERTY
U+W
SciTegic.value.DoubleValue
3.248

@<SCITEGIC>MOL_PROPERTY
Grad RMS
SciTegic.value.DoubleValue
0.000000

@<SCITEGIC>MOL_PROPERTY
U
SciTegic.value.DoubleValue
5.336

@<SCITEGIC>MOL_PROPERTY
W
SciTegic.value.DoubleValue
-2.088

@<SCITEGIC>MOL_PROPERTY
W(PB)
SciTegic.value.DoubleValue
-4.098

@<SCITEGIC>MOL_PROPERTY
W(SA)
SciTegic.value.DoubleValue
2.010

@<SCITEGIC>MOL_PROPERTY
Valence
SciTegic.value.DoubleValue
12.390

@<SCITEGIC>MOL_PROPERTY
Coulomb
SciTegic.value.DoubleValue
-9.270

@<SCITEGIC>MOL_PROPERTY
VdW
SciTegic.value.DoubleValue
2.216

@<SCITEGIC>MOL_PROPERTY
VdW6
SciTegic.value.DoubleValue
-8.967

@<SCITEGIC>MOL_PROPERTY
VdW12
SciTegic.value.DoubleValue
11.183

@<SCITEGIC>MOL_PROPERTY
Bond
SciTegic.value.DoubleValue
0.218

@<SCITEGIC>MOL_PROPERTY
Angle
SciTegic.value.DoubleValue
2.426

@<SCITEGIC>MOL_PROPERTY
Pdih
SciTegic.value.DoubleValue
9.745

@<SCITEGIC>MOL_PROPERTY
Idih
SciTegic.value.DoubleValue
0.000

@<SCITEGIC>MOL_PROPERTY
Tether
SciTegic.value.DoubleValue
0.000

@<TRIPOS>MOLECULE
guest-5_confgen4.mol2 : confsearch ligand conformer 92
          22          22           1
SMALL
USER_CHARGES
 
@<TRIPOS>ATOM
       1    C1      18.855091   18.198451   22.243942 C.3        1 MOL1        -0.1685
       2    H1      17.838713   18.319540   21.845075 H          1 MOL1         0.0832
       3    H2      19.045169   17.116500   22.252109 H          1 MOL1         0.0832
       4    C2      18.868844   18.720994   23.700457 C.3        1 MOL1        -0.1685
       5    H3      18.209655   19.595777   23.782338 H          1 MOL1         0.0832
       6    H4      18.416747   17.951746   24.341276 H          1 MOL1         0.0832
       7    C3      20.267941   19.077467   24.254531 C.3        1 MOL1        -0.1685
       8    H5      21.026870   18.371186   23.891171 H          1 MOL1         0.0832
       9    H6      20.241982   18.961687   25.346416 H          1 MOL1         0.0832
      10    C4      20.681601   20.538613   23.944668 C.3        1 MOL1        -0.1761
      11    H7      19.874292   21.215201   24.252879 H          1 MOL1         0.0832
      12    H8      21.541929   20.800142   24.574631 H          1 MOL1         0.0832
      13    C5      21.055308   20.846017   22.476695 C.3        1 MOL1         0.1218
      14    H9      21.141844   21.939059   22.393824 H          1 MOL1         0.0789
      15    C6      20.015584   20.389910   21.422453 C.3        1 MOL1        -0.1761
      16    H10     19.040568   20.844468   21.640626 H          1 MOL1         0.0832
      17    H11     20.324074   20.802472   20.453219 H          1 MOL1         0.0832
      18    C7      19.862338   18.854227   21.269450 C.3        1 MOL1        -0.1685
      19    H12     19.533775   18.632030   20.245195 H          1 MOL1         0.0832
      20    H13     20.840145   18.365815   21.373310 H          1 MOL1         0.0832
      21    O1      22.328270   20.277120   22.186955 O.3        1 MOL1        -0.5509
      22    H14     22.501478   20.449389   21.239007 H          1 MOL1         0.3779
@<TRIPOS>BOND
    1     1     2    1
    2     1     3    1
    3     1     4    1
    4     4     5    1
    5     4     6    1
    6     4     7    1
    7     7     8    1
    8     7     9    1
    9     7    10    1
   10    10    11    1
   11    10    12    1
   12    10    13    1
   13    13    14    1
   14    13    15    1
   15    15    16    1
   16    15    17    1
   17     1    18    1
   18    15    18    1
   19    18    19    1
   20    18    20    1
   21    13    21    1
   22    21    22    1
@<TRIPOS>SUBSTRUCTURE
       1 MOL1            1 RESIDUE      1      MOL     
@<SCITEGIC>MOL_PROPERTY
VConf Rank
SciTegic.value.IntegerValue
92

@<SCITEGIC>MOL_PROPERTY
Conf_Id
SciTegic.value.IntegerValue
95

@<SCITEGIC>MOL_PROPERTY
Delta U+W
SciTegic.value.DoubleValue
-2.289

@<SCITEGIC>MOL_PROPERTY
U+W
SciTegic.value.DoubleValue
4.134

@<SCITEGIC>MOL_PROPERTY
Grad RMS
SciTegic.value.DoubleValue
0.000000

@<SCITEGIC>MOL_PROPERTY
U
SciTegic.value.DoubleValue
6.373

@<SCITEGIC>MOL_PROPERTY
W
SciTegic.value.DoubleValue
-2.240

@<SCITEGIC>MOL_PROPERTY
W(PB)
SciTegic.value.DoubleValue
-4.254

@<SCITEGIC>MOL_PROPERTY
W(SA)
SciTegic.value.DoubleValue
2.015

@<SCITEGIC>MOL_PROPERTY
Valence
SciTegic.value.DoubleValue
12.093

@<SCITEGIC>MOL_PROPERTY
Coulomb
SciTegic.value.DoubleValue
-8.058

@<SCITEGIC>MOL_PROPERTY
VdW
SciTegic.value.DoubleValue
2.339

@<SCITEGIC>MOL_PROPERTY
VdW6
SciTegic.value.DoubleValue
-9.683

@<SCITEGIC>MOL_PROPERTY
VdW12
SciTegic.value.DoubleValue
12.022

@<SCITEGIC>MOL_PROPERTY
Bond
SciTegic.value.DoubleValue
0.268

@<SCITEGIC>MOL_PROPERTY
Angle
SciTegic.value.DoubleValue
3.005

@<SCITEGIC>MOL_PROPERTY
Pdih
SciTegic.value.DoubleValue
8.820

@<SCITEGIC>MOL_PROPERTY
Idih
SciTegic.value.DoubleValue
0.000

@<SCITEGIC>MOL_PROPERTY
Tether
SciTegic.value.DoubleValue
0.000

@<TRIPOS>MOLECULE
guest-5_confgen4.mol2 : confsearch ligand conformer 93
          22          22           1
SMALL
USER_CHARGES
 
@<TRIPOS>ATOM
       1    C1      20.398870   18.521208   21.189795 C.3        1 MOL1        -0.1685
       2    H1      20.308566   17.428977   21.114755 H          1 MOL1         0.0832
       3    H2      20.700940   18.864506   20.190950 H          1 MOL1         0.0832
       4    C2      21.530308   18.845403   22.194322 C.3        1 MOL1        -0.1685
       5    H3      21.521610   18.105867   23.006412 H          1 MOL1         0.0832
       6    H4      22.490940   18.705125   21.680213 H          1 MOL1         0.0832
       7    C3      21.485440   20.269862   22.794672 C.3        1 MOL1        -0.1685
       8    H5      21.160834   21.003018   22.043718 H          1 MOL1         0.0832
       9    H6      22.508890   20.553306   23.075091 H          1 MOL1         0.0832
      10    C4      20.606370   20.354173   24.068029 C.3        1 MOL1        -0.1761
      11    H7      20.899876   19.554565   24.760401 H          1 MOL1         0.0832
      12    H8      20.836023   21.291235   24.591628 H          1 MOL1         0.0832
      13    C5      19.078007   20.281273   23.847742 C.3        1 MOL1         0.1218
      14    H9      18.618506   20.177571   24.841324 H          1 MOL1         0.0789
      15    C6      18.592716   19.081864   22.995543 C.3        1 MOL1        -0.1761
      16    H10     18.921728   18.139966   23.452782 H          1 MOL1         0.0832
      17    H11     17.496206   19.071945   23.044475 H          1 MOL1         0.0832
      18    C7      19.007967   19.123221   21.501790 C.3        1 MOL1        -0.1685
      19    H12     18.262211   18.572196   20.913201 H          1 MOL1         0.0832
      20    H13     18.964458   20.155733   21.130783 H          1 MOL1         0.0832
      21    O1      18.624621   21.503992   23.274773 O.3        1 MOL1        -0.5509
      22    H14     18.971247   22.224810   23.839092 H          1 MOL1         0.3779
@<TRIPOS>BOND
    1     1     2    1
    2     1     3    1
    3     1     4    1
    4     4     5    1
    5     4     6    1
    6     4     7    1
    7     7     8    1
    8     7     9    1
    9     7    10    1
   10    10    11    1
   11    10    12    1
   12    10    13    1
   13    13    14    1
   14    13    15    1
   15    15    16    1
   16    15    17    1
   17     1    18    1
   18    15    18    1
   19    18    19    1
   20    18    20    1
   21    13    21    1
   22    21    22    1
@<TRIPOS>SUBSTRUCTURE
       1 MOL1            1 RESIDUE      1      MOL     
@<SCITEGIC>MOL_PROPERTY
VConf Rank
SciTegic.value.IntegerValue
93

@<SCITEGIC>MOL_PROPERTY
Conf_Id
SciTegic.value.IntegerValue
41

@<SCITEGIC>MOL_PROPERTY
Delta U+W
SciTegic.value.DoubleValue
-2.114

@<SCITEGIC>MOL_PROPERTY
U+W
SciTegic.value.DoubleValue
4.310

@<SCITEGIC>MOL_PROPERTY
Grad RMS
SciTegic.value.DoubleValue
0.000000

@<SCITEGIC>MOL_PROPERTY
U
SciTegic.value.DoubleValue
6.598

@<SCITEGIC>MOL_PROPERTY
W
SciTegic.value.DoubleValue
-2.289

@<SCITEGIC>MOL_PROPERTY
W(PB)
SciTegic.value.DoubleValue
-4.294

@<SCITEGIC>MOL_PROPERTY
W(SA)
SciTegic.value.DoubleValue
2.005

@<SCITEGIC>MOL_PROPERTY
Valence
SciTegic.value.DoubleValue
12.082

@<SCITEGIC>MOL_PROPERTY
Coulomb
SciTegic.value.DoubleValue
-7.801

@<SCITEGIC>MOL_PROPERTY
VdW
SciTegic.value.DoubleValue
2.317

@<SCITEGIC>MOL_PROPERTY
VdW6
SciTegic.value.DoubleValue
-9.658

@<SCITEGIC>MOL_PROPERTY
VdW12
SciTegic.value.DoubleValue
11.975

@<SCITEGIC>MOL_PROPERTY
Bond
SciTegic.value.DoubleValue
0.267

@<SCITEGIC>MOL_PROPERTY
Angle
SciTegic.value.DoubleValue
3.051

@<SCITEGIC>MOL_PROPERTY
Pdih
SciTegic.value.DoubleValue
8.764

@<SCITEGIC>MOL_PROPERTY
Idih
SciTegic.value.DoubleValue
0.000

@<SCITEGIC>MOL_PROPERTY
Tether
SciTegic.value.DoubleValue
0.000

@<TRIPOS>MOLECULE
guest-5_confgen4.mol2 : confsearch ligand conformer 94
          22          22           1
SMALL
USER_CHARGES
 
@<TRIPOS>ATOM
       1    C1      20.645521   17.987676   22.471061 C.3        1 MOL1        -0.1685
       2    H1      21.154992   17.079637   22.121126 H          1 MOL1         0.0832
       3    H2      20.277644   17.764262   23.481966 H          1 MOL1         0.0832
       4    C2      19.468194   18.270256   21.511145 C.3        1 MOL1        -0.1685
       5    H3      19.858503   18.551830   20.523746 H          1 MOL1         0.0832
       6    H4      18.908206   17.337644   21.358803 H          1 MOL1         0.0832
       7    C3      18.481483   19.351886   22.002773 C.3        1 MOL1        -0.1685
       8    H5      17.934436   18.976804   22.877955 H          1 MOL1         0.0832
       9    H6      17.722803   19.497627   21.222203 H          1 MOL1         0.0832
      10    C4      19.120251   20.729761   22.326227 C.3        1 MOL1        -0.1761
      11    H7      19.730965   21.069753   21.480242 H          1 MOL1         0.0832
      12    H8      18.306082   21.460233   22.416354 H          1 MOL1         0.0832
      13    C5      19.947272   20.804064   23.635634 C.3        1 MOL1         0.1218
      14    H9      20.051725   21.870567   23.882491 H          1 MOL1         0.0789
      15    C6      21.388396   20.236229   23.559043 C.3        1 MOL1        -0.1761
      16    H10     22.071566   21.072007   23.359503 H          1 MOL1         0.0832
      17    H11     21.677048   19.858278   24.548641 H          1 MOL1         0.0832
      18    C7      21.676310   19.137577   22.505966 C.3        1 MOL1        -0.1685
      19    H12     21.762434   19.590039   21.508833 H          1 MOL1         0.0832
      20    H13     22.666576   18.715011   22.723888 H          1 MOL1         0.0832
      21    O1      19.242544   20.181017   24.706190 O.3        1 MOL1        -0.5509
      22    H14     19.790935   20.293473   25.509017 H          1 MOL1         0.3779
@<TRIPOS>BOND
    1     1     2    1
    2     1     3    1
    3     1     4    1
    4     4     5    1
    5     4     6    1
    6     4     7    1
    7     7     8    1
    8     7     9    1
    9     7    10    1
   10    10    11    1
   11    10    12    1
   12    10    13    1
   13    13    14    1
   14    13    15    1
   15    15    16    1
   16    15    17    1
   17     1    18    1
   18    15    18    1
   19    18    19    1
   20    18    20    1
   21    13    21    1
   22    21    22    1
@<TRIPOS>SUBSTRUCTURE
       1 MOL1            1 RESIDUE      1      MOL     
@<SCITEGIC>MOL_PROPERTY
VConf Rank
SciTegic.value.IntegerValue
94

@<SCITEGIC>MOL_PROPERTY
Conf_Id
SciTegic.value.IntegerValue
104

@<SCITEGIC>MOL_PROPERTY
Delta U+W
SciTegic.value.DoubleValue
-1.172

@<SCITEGIC>MOL_PROPERTY
U+W
SciTegic.value.DoubleValue
5.252

@<SCITEGIC>MOL_PROPERTY
Grad RMS
SciTegic.value.DoubleValue
0.000000

@<SCITEGIC>MOL_PROPERTY
U
SciTegic.value.DoubleValue
7.482

@<SCITEGIC>MOL_PROPERTY
W
SciTegic.value.DoubleValue
-2.230

@<SCITEGIC>MOL_PROPERTY
W(PB)
SciTegic.value.DoubleValue
-4.220

@<SCITEGIC>MOL_PROPERTY
W(SA)
SciTegic.value.DoubleValue
1.990

@<SCITEGIC>MOL_PROPERTY
Valence
SciTegic.value.DoubleValue
12.309

@<SCITEGIC>MOL_PROPERTY
Coulomb
SciTegic.value.DoubleValue
-7.084

@<SCITEGIC>MOL_PROPERTY
VdW
SciTegic.value.DoubleValue
2.258

@<SCITEGIC>MOL_PROPERTY
VdW6
SciTegic.value.DoubleValue
-9.770

@<SCITEGIC>MOL_PROPERTY
VdW12
SciTegic.value.DoubleValue
12.028

@<SCITEGIC>MOL_PROPERTY
Bond
SciTegic.value.DoubleValue
0.284

@<SCITEGIC>MOL_PROPERTY
Angle
SciTegic.value.DoubleValue
3.491

@<SCITEGIC>MOL_PROPERTY
Pdih
SciTegic.value.DoubleValue
8.535

@<SCITEGIC>MOL_PROPERTY
Idih
SciTegic.value.DoubleValue
0.000

@<SCITEGIC>MOL_PROPERTY
Tether
SciTegic.value.DoubleValue
0.000

@<TRIPOS>MOLECULE
guest-5_confgen4.mol2 : confsearch ligand conformer 95
          22          22           1
SMALL
USER_CHARGES
 
@<TRIPOS>ATOM
       1    C1      20.006353   21.228704   22.766051 C.3        1 MOL1        -0.1685
       2    H1      19.034799   21.288337   22.257122 H          1 MOL1         0.0832
       3    H2      20.302755   22.265962   22.973853 H          1 MOL1         0.0832
       4    C2      21.077288   20.607393   21.840548 C.3        1 MOL1        -0.1685
       5    H3      21.428672   21.380316   21.143148 H          1 MOL1         0.0832
       6    H4      21.960304   20.338965   22.435163 H          1 MOL1         0.0832
       7    C3      20.614610   19.389616   21.001129 C.3        1 MOL1        -0.1685
       8    H5      21.495752   18.779903   20.757916 H          1 MOL1         0.0832
       9    H6      20.238594   19.755688   20.035970 H          1 MOL1         0.0832
      10    C4      19.517782   18.477756   21.614873 C.3        1 MOL1        -0.1761
      11    H7      18.538568   18.956124   21.483493 H          1 MOL1         0.0832
      12    H8      19.470300   17.556963   21.019148 H          1 MOL1         0.0832
      13    C5      19.681263   18.081165   23.100124 C.3        1 MOL1         0.1218
      14    H9      19.094167   17.165495   23.260584 H          1 MOL1         0.0789
      15    C6      19.122363   19.145993   24.070711 C.3        1 MOL1        -0.1761
      16    H10     18.071114   19.335256   23.817499 H          1 MOL1         0.0832
      17    H11     19.110129   18.715600   25.080591 H          1 MOL1         0.0832
      18    C7      19.876989   20.497491   24.123480 C.3        1 MOL1        -0.1685
      19    H12     19.339736   21.155628   24.819846 H          1 MOL1         0.0832
      20    H13     20.872347   20.351314   24.564357 H          1 MOL1         0.0832
      21    O1      21.042958   17.814252   23.397973 O.3        1 MOL1        -0.5509
      22    H14     21.506867   18.639601   23.153281 H          1 MOL1         0.3779
@<TRIPOS>BOND
    1     1     2    1
    2     1     3    1
    3     1     4    1
    4     4     5    1
    5     4     6    1
    6     4     7    1
    7     7     8    1
    8     7     9    1
    9     7    10    1
   10    10    11    1
   11    10    12    1
   12    10    13    1
   13    13    14    1
   14    13    15    1
   15    15    16    1
   16    15    17    1
   17     1    18    1
   18    15    18    1
   19    18    19    1
   20    18    20    1
   21    13    21    1
   22    21    22    1
@<TRIPOS>SUBSTRUCTURE
       1 MOL1            1 RESIDUE      1      MOL     
@<SCITEGIC>MOL_PROPERTY
VConf Rank
SciTegic.value.IntegerValue
95

@<SCITEGIC>MOL_PROPERTY
Conf_Id
SciTegic.value.IntegerValue
99

@<SCITEGIC>MOL_PROPERTY
Delta U+W
SciTegic.value.DoubleValue
-3.852

@<SCITEGIC>MOL_PROPERTY
U+W
SciTegic.value.DoubleValue
2.572

@<SCITEGIC>MOL_PROPERTY
Grad RMS
SciTegic.value.DoubleValue
0.000000

@<SCITEGIC>MOL_PROPERTY
U
SciTegic.value.DoubleValue
3.922

@<SCITEGIC>MOL_PROPERTY
W
SciTegic.value.DoubleValue
-1.350

@<SCITEGIC>MOL_PROPERTY
W(PB)
SciTegic.value.DoubleValue
-3.345

@<SCITEGIC>MOL_PROPERTY
W(SA)
SciTegic.value.DoubleValue
1.995

@<SCITEGIC>MOL_PROPERTY
Valence
SciTegic.value.DoubleValue
12.571

@<SCITEGIC>MOL_PROPERTY
Coulomb
SciTegic.value.DoubleValue
-10.581

@<SCITEGIC>MOL_PROPERTY
VdW
SciTegic.value.DoubleValue
1.932

@<SCITEGIC>MOL_PROPERTY
VdW6
SciTegic.value.DoubleValue
-10.483

@<SCITEGIC>MOL_PROPERTY
VdW12
SciTegic.value.DoubleValue
12.415

@<SCITEGIC>MOL_PROPERTY
Bond
SciTegic.value.DoubleValue
0.268

@<SCITEGIC>MOL_PROPERTY
Angle
SciTegic.value.DoubleValue
3.728

@<SCITEGIC>MOL_PROPERTY
Pdih
SciTegic.value.DoubleValue
8.575

@<SCITEGIC>MOL_PROPERTY
Idih
SciTegic.value.DoubleValue
0.000

@<SCITEGIC>MOL_PROPERTY
Tether
SciTegic.value.DoubleValue
0.000

@<TRIPOS>MOLECULE
guest-5_confgen4.mol2 : confsearch ligand conformer 96
          22          22           1
SMALL
USER_CHARGES
 
@<TRIPOS>ATOM
       1    C1      19.385631   18.981614   21.287233 C.3        1 MOL1        -0.1685
       2    H1      19.413911   18.747991   20.213962 H          1 MOL1         0.0832
       3    H2      18.409239   18.614925   21.631111 H          1 MOL1         0.0832
       4    C2      19.462094   20.528969   21.441174 C.3        1 MOL1        -0.1685
       5    H3      19.523305   20.965096   20.434527 H          1 MOL1         0.0832
       6    H4      18.522932   20.914447   21.860022 H          1 MOL1         0.0832
       7    C3      20.658516   21.071136   22.264204 C.3        1 MOL1        -0.1685
       8    H5      20.704161   22.160767   22.132500 H          1 MOL1         0.0832
       9    H6      21.599286   20.702254   21.837064 H          1 MOL1         0.0832
      10    C4      20.624529   20.777867   23.789874 C.3        1 MOL1        -0.1761
      11    H7      21.650162   20.845155   24.174959 H          1 MOL1         0.0832
      12    H8      20.074475   21.588239   24.286596 H          1 MOL1         0.0832
      13    C5      20.009916   19.437931   24.264196 C.3        1 MOL1         0.1218
      14    H9      20.281168   19.319213   25.323017 H          1 MOL1         0.0789
      15    C6      20.494973   18.163666   23.529954 C.3        1 MOL1        -0.1761
      16    H10     21.505203   17.921829   23.884484 H          1 MOL1         0.0832
      17    H11     19.863263   17.329368   23.862949 H          1 MOL1         0.0832
      18    C7      20.515237   18.174068   21.976158 C.3        1 MOL1        -0.1685
      19    H12     21.491699   18.526026   21.620891 H          1 MOL1         0.0832
      20    H13     20.455578   17.132428   21.632428 H          1 MOL1         0.0832
      21    O1      18.594519   19.514387   24.200564 O.3        1 MOL1        -0.5509
      22    H14     18.406073   19.618524   23.246322 H          1 MOL1         0.3779
@<TRIPOS>BOND
    1     1     2    1
    2     1     3    1
    3     1     4    1
    4     4     5    1
    5     4     6    1
    6     4     7    1
    7     7     8    1
    8     7     9    1
    9     7    10    1
   10    10    11    1
   11    10    12    1
   12    10    13    1
   13    13    14    1
   14    13    15    1
   15    15    16    1
   16    15    17    1
   17     1    18    1
   18    15    18    1
   19    18    19    1
   20    18    20    1
   21    13    21    1
   22    21    22    1
@<TRIPOS>SUBSTRUCTURE
       1 MOL1            1 RESIDUE      1      MOL     
@<SCITEGIC>MOL_PROPERTY
VConf Rank
SciTegic.value.IntegerValue
96

@<SCITEGIC>MOL_PROPERTY
Conf_Id
SciTegic.value.IntegerValue
98

@<SCITEGIC>MOL_PROPERTY
Delta U+W
SciTegic.value.DoubleValue
0.930

@<SCITEGIC>MOL_PROPERTY
U+W
SciTegic.value.DoubleValue
7.353

@<SCITEGIC>MOL_PROPERTY
Grad RMS
SciTegic.value.DoubleValue
0.000000

@<SCITEGIC>MOL_PROPERTY
U
SciTegic.value.DoubleValue
8.455

@<SCITEGIC>MOL_PROPERTY
W
SciTegic.value.DoubleValue
-1.102

@<SCITEGIC>MOL_PROPERTY
W(PB)
SciTegic.value.DoubleValue
-3.101

@<SCITEGIC>MOL_PROPERTY
W(SA)
SciTegic.value.DoubleValue
2.000

@<SCITEGIC>MOL_PROPERTY
Valence
SciTegic.value.DoubleValue
15.601

@<SCITEGIC>MOL_PROPERTY
Coulomb
SciTegic.value.DoubleValue
-10.573

@<SCITEGIC>MOL_PROPERTY
VdW
SciTegic.value.DoubleValue
3.427

@<SCITEGIC>MOL_PROPERTY
VdW6
SciTegic.value.DoubleValue
-11.360

@<SCITEGIC>MOL_PROPERTY
VdW12
SciTegic.value.DoubleValue
14.787

@<SCITEGIC>MOL_PROPERTY
Bond
SciTegic.value.DoubleValue
0.471

@<SCITEGIC>MOL_PROPERTY
Angle
SciTegic.value.DoubleValue
5.445

@<SCITEGIC>MOL_PROPERTY
Pdih
SciTegic.value.DoubleValue
9.685

@<SCITEGIC>MOL_PROPERTY
Idih
SciTegic.value.DoubleValue
0.000

@<SCITEGIC>MOL_PROPERTY
Tether
SciTegic.value.DoubleValue
0.000

@<TRIPOS>MOLECULE
guest-5_confgen4.mol2 : confsearch ligand conformer 97
          22          22           1
SMALL
USER_CHARGES
 
@<TRIPOS>ATOM
       1    C1      20.643057   18.373008   23.756425 C.3        1 MOL1        -0.1685
       2    H1      21.573410   18.400534   23.174648 H          1 MOL1         0.0832
       3    H2      20.849789   17.691380   24.592701 H          1 MOL1         0.0832
       4    C2      19.504928   17.767372   22.896177 C.3        1 MOL1        -0.1685
       5    H3      19.816417   16.756306   22.600211 H          1 MOL1         0.0832
       6    H4      18.607709   17.632828   23.515467 H          1 MOL1         0.0832
       7    C3      19.124584   18.551981   21.609954 C.3        1 MOL1        -0.1685
       8    H5      18.190961   19.106794   21.769788 H          1 MOL1         0.0832
       9    H6      18.889370   17.824008   20.821687 H          1 MOL1         0.0832
      10    C4      20.217397   19.519391   21.083088 C.3        1 MOL1        -0.1761
      11    H7      21.164359   18.974007   20.985908 H          1 MOL1         0.0832
      12    H8      19.954113   19.811471   20.057535 H          1 MOL1         0.0832
      13    C5      20.452439   20.805284   21.928727 C.3        1 MOL1         0.1218
      14    H9      21.537161   20.935074   22.053628 H          1 MOL1         0.0789
      15    C6      19.799154   20.820601   23.333448 C.3        1 MOL1        -0.1761
      16    H10     19.931551   21.816335   23.776215 H          1 MOL1         0.0832
      17    H11     18.714193   20.693281   23.237337 H          1 MOL1         0.0832
      18    C7      20.354533   19.777982   24.335600 C.3        1 MOL1        -0.1685
      19    H12     21.285282   20.165246   24.772116 H          1 MOL1         0.0832
      20    H13     19.646147   19.685284   25.170026 H          1 MOL1         0.0832
      21    O1      19.938532   21.919175   21.207393 O.3        1 MOL1        -0.5509
      22    H14     20.150169   22.718457   21.733260 H          1 MOL1         0.3779
@<TRIPOS>BOND
    1     1     2    1
    2     1     3    1
    3     1     4    1
    4     4     5    1
    5     4     6    1
    6     4     7    1
    7     7     8    1
    8     7     9    1
    9     7    10    1
   10    10    11    1
   11    10    12    1
   12    10    13    1
   13    13    14    1
   14    13    15    1
   15    15    16    1
   16    15    17    1
   17     1    18    1
   18    15    18    1
   19    18    19    1
   20    18    20    1
   21    13    21    1
   22    21    22    1
@<TRIPOS>SUBSTRUCTURE
       1 MOL1            1 RESIDUE      1      MOL     
@<SCITEGIC>MOL_PROPERTY
VConf Rank
SciTegic.value.IntegerValue
97

@<SCITEGIC>MOL_PROPERTY
Conf_Id
SciTegic.value.IntegerValue
141

@<SCITEGIC>MOL_PROPERTY
Delta U+W
SciTegic.value.DoubleValue
0.000

@<SCITEGIC>MOL_PROPERTY
U+W
SciTegic.value.DoubleValue
6.423

@<SCITEGIC>MOL_PROPERTY
Grad RMS
SciTegic.value.DoubleValue
0.000000

@<SCITEGIC>MOL_PROPERTY
U
SciTegic.value.DoubleValue
8.781

@<SCITEGIC>MOL_PROPERTY
W
SciTegic.value.DoubleValue
-2.358

@<SCITEGIC>MOL_PROPERTY
W(PB)
SciTegic.value.DoubleValue
-4.373

@<SCITEGIC>MOL_PROPERTY
W(SA)
SciTegic.value.DoubleValue
2.015

@<SCITEGIC>MOL_PROPERTY
Valence
SciTegic.value.DoubleValue
13.328

@<SCITEGIC>MOL_PROPERTY
Coulomb
SciTegic.value.DoubleValue
-8.387

@<SCITEGIC>MOL_PROPERTY
VdW
SciTegic.value.DoubleValue
3.840

@<SCITEGIC>MOL_PROPERTY
VdW6
SciTegic.value.DoubleValue
-9.744

@<SCITEGIC>MOL_PROPERTY
VdW12
SciTegic.value.DoubleValue
13.584

@<SCITEGIC>MOL_PROPERTY
Bond
SciTegic.value.DoubleValue
0.436

@<SCITEGIC>MOL_PROPERTY
Angle
SciTegic.value.DoubleValue
3.478

@<SCITEGIC>MOL_PROPERTY
Pdih
SciTegic.value.DoubleValue
9.415

@<SCITEGIC>MOL_PROPERTY
Idih
SciTegic.value.DoubleValue
0.000

@<SCITEGIC>MOL_PROPERTY
Tether
SciTegic.value.DoubleValue
0.000

@<TRIPOS>MOLECULE
guest-5_confgen4.mol2 : confsearch ligand conformer 98
          22          22           1
SMALL
USER_CHARGES
 
@<TRIPOS>ATOM
       1    C1      21.247929   19.140616   21.544383 C.3        1 MOL1        -0.1685
       2    H1      20.610193   18.312164   21.207383 H          1 MOL1         0.0832
       3    H2      22.151344   19.101579   20.920506 H          1 MOL1         0.0832
       4    C2      21.684340   18.940096   23.015774 C.3        1 MOL1        -0.1685
       5    H3      22.371786   18.084521   23.063358 H          1 MOL1         0.0832
       6    H4      22.268321   19.810694   23.344260 H          1 MOL1         0.0832
       7    C3      20.532927   18.689656   24.016703 C.3        1 MOL1        -0.1685
       8    H5      20.963012   18.632075   25.025930 H          1 MOL1         0.0832
       9    H6      20.089463   17.703292   23.823350 H          1 MOL1         0.0832
      10    C4      19.419113   19.765107   24.014811 C.3        1 MOL1        -0.1761
      11    H7      18.799363   19.602686   24.906446 H          1 MOL1         0.0832
      12    H8      19.850042   20.769097   24.121123 H          1 MOL1         0.0832
      13    C5      18.521124   19.691670   22.759482 C.3        1 MOL1         0.1218
      14    H9      18.448986   18.639412   22.449012 H          1 MOL1         0.0789
      15    C6      19.030279   20.518347   21.556708 C.3        1 MOL1        -0.1761
      16    H10     18.519479   20.146389   20.659167 H          1 MOL1         0.0832
      17    H11     18.711770   21.562940   21.672844 H          1 MOL1         0.0832
      18    C7      20.558263   20.503499   21.301581 C.3        1 MOL1        -0.1685
      19    H12     20.731657   20.810758   20.261220 H          1 MOL1         0.0832
      20    H13     21.041446   21.272492   21.919556 H          1 MOL1         0.0832
      21    O1      17.221343   20.160105   23.097647 O.3        1 MOL1        -0.5509
      22    H14     16.886878   19.575316   23.809527 H          1 MOL1         0.3779
@<TRIPOS>BOND
    1     1     2    1
    2     1     3    1
    3     1     4    1
    4     4     5    1
    5     4     6    1
    6     4     7    1
    7     7     8    1
    8     7     9    1
    9     7    10    1
   10    10    11    1
   11    10    12    1
   12    10    13    1
   13    13    14    1
   14    13    15    1
   15    15    16    1
   16    15    17    1
   17     1    18    1
   18    15    18    1
   19    18    19    1
   20    18    20    1
   21    13    21    1
   22    21    22    1
@<TRIPOS>SUBSTRUCTURE
       1 MOL1            1 RESIDUE      1      MOL     
@<SCITEGIC>MOL_PROPERTY
VConf Rank
SciTegic.value.IntegerValue
98

@<SCITEGIC>MOL_PROPERTY
Conf_Id
SciTegic.value.IntegerValue
144

@<SCITEGIC>MOL_PROPERTY
Delta U+W
SciTegic.value.DoubleValue
-3.291

@<SCITEGIC>MOL_PROPERTY
U+W
SciTegic.value.DoubleValue
3.132

@<SCITEGIC>MOL_PROPERTY
Grad RMS
SciTegic.value.DoubleValue
0.000000

@<SCITEGIC>MOL_PROPERTY
U
SciTegic.value.DoubleValue
5.411

@<SCITEGIC>MOL_PROPERTY
W
SciTegic.value.DoubleValue
-2.279

@<SCITEGIC>MOL_PROPERTY
W(PB)
SciTegic.value.DoubleValue
-4.300

@<SCITEGIC>MOL_PROPERTY
W(SA)
SciTegic.value.DoubleValue
2.021

@<SCITEGIC>MOL_PROPERTY
Valence
SciTegic.value.DoubleValue
11.909

@<SCITEGIC>MOL_PROPERTY
Coulomb
SciTegic.value.DoubleValue
-8.733

@<SCITEGIC>MOL_PROPERTY
VdW
SciTegic.value.DoubleValue
2.236

@<SCITEGIC>MOL_PROPERTY
VdW6
SciTegic.value.DoubleValue
-8.936

@<SCITEGIC>MOL_PROPERTY
VdW12
SciTegic.value.DoubleValue
11.172

@<SCITEGIC>MOL_PROPERTY
Bond
SciTegic.value.DoubleValue
0.223

@<SCITEGIC>MOL_PROPERTY
Angle
SciTegic.value.DoubleValue
2.457

@<SCITEGIC>MOL_PROPERTY
Pdih
SciTegic.value.DoubleValue
9.228

@<SCITEGIC>MOL_PROPERTY
Idih
SciTegic.value.DoubleValue
0.000

@<SCITEGIC>MOL_PROPERTY
Tether
SciTegic.value.DoubleValue
0.000

@<TRIPOS>MOLECULE
guest-5_confgen4.mol2 : confsearch ligand conformer 99
          22          22           1
SMALL
USER_CHARGES
 
@<TRIPOS>ATOM
       1    C1      21.029966   19.502111   23.999477 C.3        1 MOL1        -0.1685
       2    H1      21.835175   19.243488   24.700650 H          1 MOL1         0.0832
       3    H2      20.510694   20.365102   24.437980 H          1 MOL1         0.0832
       4    C2      20.081489   18.285322   23.890432 C.3        1 MOL1        -0.1685
       5    H3      20.495333   17.562220   23.174450 H          1 MOL1         0.0832
       6    H4      20.061869   17.762361   24.856416 H          1 MOL1         0.0832
       7    C3      18.621851   18.623615   23.501924 C.3        1 MOL1        -0.1685
       8    H5      18.069995   18.915846   24.405789 H          1 MOL1         0.0832
       9    H6      18.140928   17.703120   23.143566 H          1 MOL1         0.0832
      10    C4      18.433783   19.736310   22.441415 C.3        1 MOL1        -0.1761
      11    H7      17.420354   19.639385   22.029061 H          1 MOL1         0.0832
      12    H8      18.460933   20.715202   22.937328 H          1 MOL1         0.0832
      13    C5      19.463107   19.718704   21.289123 C.3        1 MOL1         0.1218
      14    H9      19.739543   18.680100   21.058138 H          1 MOL1         0.0789
      15    C6      20.734998   20.532909   21.618273 C.3        1 MOL1        -0.1761
      16    H10     21.299958   20.693124   20.690219 H          1 MOL1         0.0832
      17    H11     20.448972   21.530808   21.975304 H          1 MOL1         0.0832
      18    C7      21.685347   19.878620   22.649029 C.3        1 MOL1        -0.1685
      19    H12     22.144614   18.984992   22.204701 H          1 MOL1         0.0832
      20    H13     22.512564   20.574879   22.843253 H          1 MOL1         0.0832
      21    O1      18.858557   20.299026   20.141099 O.3        1 MOL1        -0.5509
      22    H14     18.626045   21.218384   20.385801 H          1 MOL1         0.3779
@<TRIPOS>BOND
    1     1     2    1
    2     1     3    1
    3     1     4    1
    4     4     5    1
    5     4     6    1
    6     4     7    1
    7     7     8    1
    8     7     9    1
    9     7    10    1
   10    10    11    1
   11    10    12    1
   12    10    13    1
   13    13    14    1
   14    13    15    1
   15    15    16    1
   16    15    17    1
   17     1    18    1
   18    15    18    1
   19    18    19    1
   20    18    20    1
   21    13    21    1
   22    21    22    1
@<TRIPOS>SUBSTRUCTURE
       1 MOL1            1 RESIDUE      1      MOL     
@<SCITEGIC>MOL_PROPERTY
VConf Rank
SciTegic.value.IntegerValue
99

@<SCITEGIC>MOL_PROPERTY
Conf_Id
SciTegic.value.IntegerValue
76

@<SCITEGIC>MOL_PROPERTY
Delta U+W
SciTegic.value.DoubleValue
-3.175

@<SCITEGIC>MOL_PROPERTY
U+W
SciTegic.value.DoubleValue
3.248

@<SCITEGIC>MOL_PROPERTY
Grad RMS
SciTegic.value.DoubleValue
0.000000

@<SCITEGIC>MOL_PROPERTY
U
SciTegic.value.DoubleValue
5.336

@<SCITEGIC>MOL_PROPERTY
W
SciTegic.value.DoubleValue
-2.088

@<SCITEGIC>MOL_PROPERTY
W(PB)
SciTegic.value.DoubleValue
-4.098

@<SCITEGIC>MOL_PROPERTY
W(SA)
SciTegic.value.DoubleValue
2.010

@<SCITEGIC>MOL_PROPERTY
Valence
SciTegic.value.DoubleValue
12.390

@<SCITEGIC>MOL_PROPERTY
Coulomb
SciTegic.value.DoubleValue
-9.270

@<SCITEGIC>MOL_PROPERTY
VdW
SciTegic.value.DoubleValue
2.216

@<SCITEGIC>MOL_PROPERTY
VdW6
SciTegic.value.DoubleValue
-8.967

@<SCITEGIC>MOL_PROPERTY
VdW12
SciTegic.value.DoubleValue
11.183

@<SCITEGIC>MOL_PROPERTY
Bond
SciTegic.value.DoubleValue
0.218

@<SCITEGIC>MOL_PROPERTY
Angle
SciTegic.value.DoubleValue
2.426

@<SCITEGIC>MOL_PROPERTY
Pdih
SciTegic.value.DoubleValue
9.745

@<SCITEGIC>MOL_PROPERTY
Idih
SciTegic.value.DoubleValue
0.000

@<SCITEGIC>MOL_PROPERTY
Tether
SciTegic.value.DoubleValue
0.000

@<TRIPOS>MOLECULE
guest-5_confgen4.mol2 : confsearch ligand conformer 100
          22          22           1
SMALL
USER_CHARGES
 
@<TRIPOS>ATOM
       1    C1      18.273498   20.047354   22.454209 C.3        1 MOL1        -0.1685
       2    H1      17.868294   20.755261   21.718370 H          1 MOL1         0.0832
       3    H2      17.401874   19.622887   22.970847 H          1 MOL1         0.0832
       4    C2      19.122769   20.842817   23.474333 C.3        1 MOL1        -0.1685
       5    H3      19.648946   21.656846   22.957639 H          1 MOL1         0.0832
       6    H4      18.436358   21.335864   24.176137 H          1 MOL1         0.0832
       7    C3      20.141096   19.999649   24.276592 C.3        1 MOL1        -0.1685
       8    H5      19.728249   19.011298   24.520634 H          1 MOL1         0.0832
       9    H6      20.317787   20.501687   25.237337 H          1 MOL1         0.0832
      10    C4      21.506991   19.863971   23.556869 C.3        1 MOL1        -0.1761
      11    H7      21.859864   20.860436   23.261827 H          1 MOL1         0.0832
      12    H8      22.246809   19.490640   24.277083 H          1 MOL1         0.0832
      13    C5      21.537989   18.938468   22.319299 C.3        1 MOL1         0.1218
      14    H9      22.510101   19.095783   21.830067 H          1 MOL1         0.0789
      15    C6      20.443528   19.218703   21.259058 C.3        1 MOL1        -0.1761
      16    H10     20.510706   20.261035   20.921551 H          1 MOL1         0.0832
      17    H11     20.672645   18.606827   20.377071 H          1 MOL1         0.0832
      18    C7      18.993859   18.899113   21.707988 C.3        1 MOL1        -0.1685
      19    H12     18.396751   18.646561   20.821364 H          1 MOL1         0.0832
      20    H13     18.983226   17.996041   22.332320 H          1 MOL1         0.0832
      21    O1      21.470552   17.581396   22.745714 O.3        1 MOL1        -0.5509
      22    H14     21.440328   17.035171   21.933920 H          1 MOL1         0.3779
@<TRIPOS>BOND
    1     1     2    1
    2     1     3    1
    3     1     4    1
    4     4     5    1
    5     4     6    1
    6     4     7    1
    7     7     8    1
    8     7     9    1
    9     7    10    1
   10    10    11    1
   11    10    12    1
   12    10    13    1
   13    13    14    1
   14    13    15    1
   15    15    16    1
   16    15    17    1
   17     1    18    1
   18    15    18    1
   19    18    19    1
   20    18    20    1
   21    13    21    1
   22    21    22    1
@<TRIPOS>SUBSTRUCTURE
       1 MOL1            1 RESIDUE      1      MOL     
@<SCITEGIC>MOL_PROPERTY
VConf Rank
SciTegic.value.IntegerValue
100

@<SCITEGIC>MOL_PROPERTY
Conf_Id
SciTegic.value.IntegerValue
95

@<SCITEGIC>MOL_PROPERTY
Delta U+W
SciTegic.value.DoubleValue
-2.289

@<SCITEGIC>MOL_PROPERTY
U+W
SciTegic.value.DoubleValue
4.134

@<SCITEGIC>MOL_PROPERTY
Grad RMS
SciTegic.value.DoubleValue
0.000000

@<SCITEGIC>MOL_PROPERTY
U
SciTegic.value.DoubleValue
6.373

@<SCITEGIC>MOL_PROPERTY
W
SciTegic.value.DoubleValue
-2.240

@<SCITEGIC>MOL_PROPERTY
W(PB)
SciTegic.value.DoubleValue
-4.254

@<SCITEGIC>MOL_PROPERTY
W(SA)
SciTegic.value.DoubleValue
2.015

@<SCITEGIC>MOL_PROPERTY
Valence
SciTegic.value.DoubleValue
12.093

@<SCITEGIC>MOL_PROPERTY
Coulomb
SciTegic.value.DoubleValue
-8.058

@<SCITEGIC>MOL_PROPERTY
VdW
SciTegic.value.DoubleValue
2.339

@<SCITEGIC>MOL_PROPERTY
VdW6
SciTegic.value.DoubleValue
-9.683

@<SCITEGIC>MOL_PROPERTY
VdW12
SciTegic.value.DoubleValue
12.022

@<SCITEGIC>MOL_PROPERTY
Bond
SciTegic.value.DoubleValue
0.268

@<SCITEGIC>MOL_PROPERTY
Angle
SciTegic.value.DoubleValue
3.005

@<SCITEGIC>MOL_PROPERTY
Pdih
SciTegic.value.DoubleValue
8.820

@<SCITEGIC>MOL_PROPERTY
Idih
SciTegic.value.DoubleValue
0.000

@<SCITEGIC>MOL_PROPERTY
Tether
SciTegic.value.DoubleValue
0.000

@<TRIPOS>MOLECULE
guest-5_confgen4.mol2 : confsearch ligand conformer 101
          22          22           1
SMALL
USER_CHARGES
 
@<TRIPOS>ATOM
       1    C1      21.376967   20.754318   21.924883 C.3        1 MOL1        -0.1685
       2    H1      21.656798   21.774971   22.219360 H          1 MOL1         0.0832
       3    H2      22.052626   20.486031   21.101296 H          1 MOL1         0.0832
       4    C2      19.924759   20.785456   21.391542 C.3        1 MOL1        -0.1685
       5    H3      19.338048   21.511903   21.969922 H          1 MOL1         0.0832
       6    H4      19.948404   21.177854   20.365743 H          1 MOL1         0.0832
       7    C3      19.197600   19.420628   21.390389 C.3        1 MOL1        -0.1685
       8    H5      19.886947   18.608043   21.123321 H          1 MOL1         0.0832
       9    H6      18.432898   19.443184   20.602259 H          1 MOL1         0.0832
      10    C4      18.483387   19.123007   22.733010 C.3        1 MOL1        -0.1761
      11    H7      17.870027   19.989197   23.013011 H          1 MOL1         0.0832
      12    H8      17.772491   18.301122   22.577725 H          1 MOL1         0.0832
      13    C5      19.397095   18.757928   23.925315 C.3        1 MOL1         0.1218
      14    H9      18.761346   18.751966   24.822471 H          1 MOL1         0.0789
      15    C6      20.554519   19.751761   24.195502 C.3        1 MOL1        -0.1761
      16    H10     20.151989   20.758820   24.363697 H          1 MOL1         0.0832
      17    H11     21.023028   19.454127   25.142466 H          1 MOL1         0.0832
      18    C7      21.656456   19.793134   23.104876 C.3        1 MOL1        -0.1685
      19    H12     22.602858   20.098000   23.571350 H          1 MOL1         0.0832
      20    H13     21.836864   18.781484   22.718048 H          1 MOL1         0.0832
      21    O1      19.913908   17.443723   23.739135 O.3        1 MOL1        -0.5509
      22    H14     19.147321   16.863158   23.556172 H          1 MOL1         0.3779
@<TRIPOS>BOND
    1     1     2    1
    2     1     3    1
    3     1     4    1
    4     4     5    1
    5     4     6    1
    6     4     7    1
    7     7     8    1
    8     7     9    1
    9     7    10    1
   10    10    11    1
   11    10    12    1
   12    10    13    1
   13    13    14    1
   14    13    15    1
   15    15    16    1
   16    15    17    1
   17     1    18    1
   18    15    18    1
   19    18    19    1
   20    18    20    1
   21    13    21    1
   22    21    22    1
@<TRIPOS>SUBSTRUCTURE
       1 MOL1            1 RESIDUE      1      MOL     
@<SCITEGIC>MOL_PROPERTY
VConf Rank
SciTegic.value.IntegerValue
101

@<SCITEGIC>MOL_PROPERTY
Conf_Id
SciTegic.value.IntegerValue
41

@<SCITEGIC>MOL_PROPERTY
Delta U+W
SciTegic.value.DoubleValue
-2.114

@<SCITEGIC>MOL_PROPERTY
U+W
SciTegic.value.DoubleValue
4.310

@<SCITEGIC>MOL_PROPERTY
Grad RMS
SciTegic.value.DoubleValue
0.000000

@<SCITEGIC>MOL_PROPERTY
U
SciTegic.value.DoubleValue
6.598

@<SCITEGIC>MOL_PROPERTY
W
SciTegic.value.DoubleValue
-2.289

@<SCITEGIC>MOL_PROPERTY
W(PB)
SciTegic.value.DoubleValue
-4.294

@<SCITEGIC>MOL_PROPERTY
W(SA)
SciTegic.value.DoubleValue
2.005

@<SCITEGIC>MOL_PROPERTY
Valence
SciTegic.value.DoubleValue
12.082

@<SCITEGIC>MOL_PROPERTY
Coulomb
SciTegic.value.DoubleValue
-7.801

@<SCITEGIC>MOL_PROPERTY
VdW
SciTegic.value.DoubleValue
2.317

@<SCITEGIC>MOL_PROPERTY
VdW6
SciTegic.value.DoubleValue
-9.658

@<SCITEGIC>MOL_PROPERTY
VdW12
SciTegic.value.DoubleValue
11.975

@<SCITEGIC>MOL_PROPERTY
Bond
SciTegic.value.DoubleValue
0.267

@<SCITEGIC>MOL_PROPERTY
Angle
SciTegic.value.DoubleValue
3.051

@<SCITEGIC>MOL_PROPERTY
Pdih
SciTegic.value.DoubleValue
8.764

@<SCITEGIC>MOL_PROPERTY
Idih
SciTegic.value.DoubleValue
0.000

@<SCITEGIC>MOL_PROPERTY
Tether
SciTegic.value.DoubleValue
0.000

@<TRIPOS>MOLECULE
guest-5_confgen4.mol2 : confsearch ligand conformer 102
          22          22           1
SMALL
USER_CHARGES
 
@<TRIPOS>ATOM
       1    C1      18.913568   18.930873   21.698181 C.3        1 MOL1        -0.1685
       2    H1      17.989480   18.553287   21.239879 H          1 MOL1         0.0832
       3    H2      19.567881   19.232376   20.868635 H          1 MOL1         0.0832
       4    C2      19.549380   17.775703   22.503608 C.3        1 MOL1        -0.1685
       5    H3      18.910400   17.531697   23.363111 H          1 MOL1         0.0832
       6    H4      19.563969   16.875649   21.874125 H          1 MOL1         0.0832
       7    C3      20.989013   18.047221   22.992440 C.3        1 MOL1        -0.1685
       8    H5      21.667633   18.080701   22.129744 H          1 MOL1         0.0832
       9    H6      21.312801   17.182988   23.587745 H          1 MOL1         0.0832
      10    C4      21.162755   19.326834   23.854757 C.3        1 MOL1        -0.1761
      11    H7      20.431882   19.331561   24.673329 H          1 MOL1         0.0832
      12    H8      22.147170   19.271216   24.336854 H          1 MOL1         0.0832
      13    C5      21.104588   20.674156   23.089661 C.3        1 MOL1         0.1218
      14    H9      21.551521   21.431340   23.750115 H          1 MOL1         0.0789
      15    C6      19.685683   21.192203   22.738269 C.3        1 MOL1        -0.1761
      16    H10     19.378172   21.895889   23.522695 H          1 MOL1         0.0832
      17    H11     19.740802   21.791025   21.819659 H          1 MOL1         0.0832
      18    C7      18.554001   20.146562   22.580694 C.3        1 MOL1        -0.1685
      19    H12     18.223268   19.802872   23.570091 H          1 MOL1         0.0832
      20    H13     17.685690   20.655468   22.140548 H          1 MOL1         0.0832
      21    O1      21.898350   20.610764   21.907780 O.3        1 MOL1        -0.5509
      22    H14     21.855882   21.495246   21.490888 H          1 MOL1         0.3779
@<TRIPOS>BOND
    1     1     2    1
    2     1     3    1
    3     1     4    1
    4     4     5    1
    5     4     6    1
    6     4     7    1
    7     7     8    1
    8     7     9    1
    9     7    10    1
   10    10    11    1
   11    10    12    1
   12    10    13    1
   13    13    14    1
   14    13    15    1
   15    15    16    1
   16    15    17    1
   17     1    18    1
   18    15    18    1
   19    18    19    1
   20    18    20    1
   21    13    21    1
   22    21    22    1
@<TRIPOS>SUBSTRUCTURE
       1 MOL1            1 RESIDUE      1      MOL     
@<SCITEGIC>MOL_PROPERTY
VConf Rank
SciTegic.value.IntegerValue
102

@<SCITEGIC>MOL_PROPERTY
Conf_Id
SciTegic.value.IntegerValue
104

@<SCITEGIC>MOL_PROPERTY
Delta U+W
SciTegic.value.DoubleValue
-1.172

@<SCITEGIC>MOL_PROPERTY
U+W
SciTegic.value.DoubleValue
5.252

@<SCITEGIC>MOL_PROPERTY
Grad RMS
SciTegic.value.DoubleValue
0.000000

@<SCITEGIC>MOL_PROPERTY
U
SciTegic.value.DoubleValue
7.482

@<SCITEGIC>MOL_PROPERTY
W
SciTegic.value.DoubleValue
-2.230

@<SCITEGIC>MOL_PROPERTY
W(PB)
SciTegic.value.DoubleValue
-4.220

@<SCITEGIC>MOL_PROPERTY
W(SA)
SciTegic.value.DoubleValue
1.990

@<SCITEGIC>MOL_PROPERTY
Valence
SciTegic.value.DoubleValue
12.309

@<SCITEGIC>MOL_PROPERTY
Coulomb
SciTegic.value.DoubleValue
-7.084

@<SCITEGIC>MOL_PROPERTY
VdW
SciTegic.value.DoubleValue
2.258

@<SCITEGIC>MOL_PROPERTY
VdW6
SciTegic.value.DoubleValue
-9.770

@<SCITEGIC>MOL_PROPERTY
VdW12
SciTegic.value.DoubleValue
12.028

@<SCITEGIC>MOL_PROPERTY
Bond
SciTegic.value.DoubleValue
0.284

@<SCITEGIC>MOL_PROPERTY
Angle
SciTegic.value.DoubleValue
3.491

@<SCITEGIC>MOL_PROPERTY
Pdih
SciTegic.value.DoubleValue
8.535

@<SCITEGIC>MOL_PROPERTY
Idih
SciTegic.value.DoubleValue
0.000

@<SCITEGIC>MOL_PROPERTY
Tether
SciTegic.value.DoubleValue
0.000

@<TRIPOS>MOLECULE
guest-5_confgen4.mol2 : confsearch ligand conformer 103
          22          22           1
SMALL
USER_CHARGES
 
@<TRIPOS>ATOM
       1    C1      20.754641   20.967587   23.238444 C.3        1 MOL1        -0.1685
       2    H1      21.281992   21.168072   22.296005 H          1 MOL1         0.0832
       3    H2      21.044843   21.774903   23.924712 H          1 MOL1         0.0832
       4    C2      21.220324   19.630166   23.858063 C.3        1 MOL1        -0.1685
       5    H3      22.180054   19.795185   24.366921 H          1 MOL1         0.0832
       6    H4      20.523808   19.336174   24.654160 H          1 MOL1         0.0832
       7    C3      21.409921   18.458439   22.861678 C.3        1 MOL1        -0.1685
       8    H5      21.290346   17.513408   23.409338 H          1 MOL1         0.0832
       9    H6      22.451992   18.463391   22.513837 H          1 MOL1         0.0832
      10    C4      20.497636   18.438088   21.605284 C.3        1 MOL1        -0.1761
      11    H7      20.890292   19.147348   20.865198 H          1 MOL1         0.0832
      12    H8      20.590750   17.450614   21.134937 H          1 MOL1         0.0832
      13    C5      18.994465   18.727477   21.821412 C.3        1 MOL1         0.1218
      14    H9      18.452632   18.298419   20.966306 H          1 MOL1         0.0789
      15    C6      18.671112   20.238525   21.842508 C.3        1 MOL1        -0.1761
      16    H10     19.038599   20.689719   20.911680 H          1 MOL1         0.0832
      17    H11     17.579806   20.355257   21.816657 H          1 MOL1         0.0832
      18    C7      19.221755   21.046763   23.043481 C.3        1 MOL1        -0.1685
      19    H12     18.947059   22.099860   22.894350 H          1 MOL1         0.0832
      20    H13     18.712284   20.736880   23.965919 H          1 MOL1         0.0832
      21    O1      18.534738   18.112006   23.014734 O.3        1 MOL1        -0.5509
      22    H14     19.114660   18.479239   23.711236 H          1 MOL1         0.3779
@<TRIPOS>BOND
    1     1     2    1
    2     1     3    1
    3     1     4    1
    4     4     5    1
    5     4     6    1
    6     4     7    1
    7     7     8    1
    8     7     9    1
    9     7    10    1
   10    10    11    1
   11    10    12    1
   12    10    13    1
   13    13    14    1
   14    13    15    1
   15    15    16    1
   16    15    17    1
   17     1    18    1
   18    15    18    1
   19    18    19    1
   20    18    20    1
   21    13    21    1
   22    21    22    1
@<TRIPOS>SUBSTRUCTURE
       1 MOL1            1 RESIDUE      1      MOL     
@<SCITEGIC>MOL_PROPERTY
VConf Rank
SciTegic.value.IntegerValue
103

@<SCITEGIC>MOL_PROPERTY
Conf_Id
SciTegic.value.IntegerValue
99

@<SCITEGIC>MOL_PROPERTY
Delta U+W
SciTegic.value.DoubleValue
-3.852

@<SCITEGIC>MOL_PROPERTY
U+W
SciTegic.value.DoubleValue
2.572

@<SCITEGIC>MOL_PROPERTY
Grad RMS
SciTegic.value.DoubleValue
0.000000

@<SCITEGIC>MOL_PROPERTY
U
SciTegic.value.DoubleValue
3.922

@<SCITEGIC>MOL_PROPERTY
W
SciTegic.value.DoubleValue
-1.350

@<SCITEGIC>MOL_PROPERTY
W(PB)
SciTegic.value.DoubleValue
-3.345

@<SCITEGIC>MOL_PROPERTY
W(SA)
SciTegic.value.DoubleValue
1.995

@<SCITEGIC>MOL_PROPERTY
Valence
SciTegic.value.DoubleValue
12.571

@<SCITEGIC>MOL_PROPERTY
Coulomb
SciTegic.value.DoubleValue
-10.581

@<SCITEGIC>MOL_PROPERTY
VdW
SciTegic.value.DoubleValue
1.932

@<SCITEGIC>MOL_PROPERTY
VdW6
SciTegic.value.DoubleValue
-10.483

@<SCITEGIC>MOL_PROPERTY
VdW12
SciTegic.value.DoubleValue
12.415

@<SCITEGIC>MOL_PROPERTY
Bond
SciTegic.value.DoubleValue
0.268

@<SCITEGIC>MOL_PROPERTY
Angle
SciTegic.value.DoubleValue
3.728

@<SCITEGIC>MOL_PROPERTY
Pdih
SciTegic.value.DoubleValue
8.575

@<SCITEGIC>MOL_PROPERTY
Idih
SciTegic.value.DoubleValue
0.000

@<SCITEGIC>MOL_PROPERTY
Tether
SciTegic.value.DoubleValue
0.000

@<TRIPOS>MOLECULE
guest-5_confgen4.mol2 : confsearch ligand conformer 104
          22          22           1
SMALL
USER_CHARGES
 
@<TRIPOS>ATOM
       1    C1      19.716796   20.759364   21.541215 C.3        1 MOL1        -0.1685
       2    H1      19.547241   21.082452   20.504800 H          1 MOL1         0.0832
       3    H2      19.556904   21.660405   22.148352 H          1 MOL1         0.0832
       4    C2      21.196241   20.288939   21.658659 C.3        1 MOL1        -0.1685
       5    H3      21.667080   20.408566   20.673118 H          1 MOL1         0.0832
       6    H4      21.755484   20.961211   22.323001 H          1 MOL1         0.0832
       7    C3      21.408219   18.820679   22.108136 C.3        1 MOL1        -0.1685
       8    H5      22.466189   18.563200   21.962774 H          1 MOL1         0.0832
       9    H6      20.865263   18.145366   21.435291 H          1 MOL1         0.0832
      10    C4      21.039342   18.499753   23.583183 C.3        1 MOL1        -0.1761
      11    H7      20.853416   17.420976   23.663267 H          1 MOL1         0.0832
      12    H8      21.920726   18.689494   24.210204 H          1 MOL1         0.0832
      13    C5      19.844070   19.251556   24.219010 C.3        1 MOL1         0.1218
      14    H9      19.604932   18.734117   25.159139 H          1 MOL1         0.0789
      15    C6      18.539946   19.294826   23.385023 C.3        1 MOL1        -0.1761
      16    H10     18.058478   18.310094   23.441872 H          1 MOL1         0.0832
      17    H11     17.848932   19.984965   23.887223 H          1 MOL1         0.0832
      18    C7      18.638313   19.701508   21.888449 C.3        1 MOL1        -0.1685
      19    H12     18.784534   18.806934   21.270448 H          1 MOL1         0.0832
      20    H13     17.658544   20.091961   21.581329 H          1 MOL1         0.0832
      21    O1      20.237479   20.572412   24.556367 O.3        1 MOL1        -0.5509
      22    H14     20.437744   20.987125   23.693326 H          1 MOL1         0.3779
@<TRIPOS>BOND
    1     1     2    1
    2     1     3    1
    3     1     4    1
    4     4     5    1
    5     4     6    1
    6     4     7    1
    7     7     8    1
    8     7     9    1
    9     7    10    1
   10    10    11    1
   11    10    12    1
   12    10    13    1
   13    13    14    1
   14    13    15    1
   15    15    16    1
   16    15    17    1
   17     1    18    1
   18    15    18    1
   19    18    19    1
   20    18    20    1
   21    13    21    1
   22    21    22    1
@<TRIPOS>SUBSTRUCTURE
       1 MOL1            1 RESIDUE      1      MOL     
@<SCITEGIC>MOL_PROPERTY
VConf Rank
SciTegic.value.IntegerValue
104

@<SCITEGIC>MOL_PROPERTY
Conf_Id
SciTegic.value.IntegerValue
98

@<SCITEGIC>MOL_PROPERTY
Delta U+W
SciTegic.value.DoubleValue
0.930

@<SCITEGIC>MOL_PROPERTY
U+W
SciTegic.value.DoubleValue
7.353

@<SCITEGIC>MOL_PROPERTY
Grad RMS
SciTegic.value.DoubleValue
0.000000

@<SCITEGIC>MOL_PROPERTY
U
SciTegic.value.DoubleValue
8.455

@<SCITEGIC>MOL_PROPERTY
W
SciTegic.value.DoubleValue
-1.102

@<SCITEGIC>MOL_PROPERTY
W(PB)
SciTegic.value.DoubleValue
-3.101

@<SCITEGIC>MOL_PROPERTY
W(SA)
SciTegic.value.DoubleValue
2.000

@<SCITEGIC>MOL_PROPERTY
Valence
SciTegic.value.DoubleValue
15.601

@<SCITEGIC>MOL_PROPERTY
Coulomb
SciTegic.value.DoubleValue
-10.573

@<SCITEGIC>MOL_PROPERTY
VdW
SciTegic.value.DoubleValue
3.427

@<SCITEGIC>MOL_PROPERTY
VdW6
SciTegic.value.DoubleValue
-11.360

@<SCITEGIC>MOL_PROPERTY
VdW12
SciTegic.value.DoubleValue
14.787

@<SCITEGIC>MOL_PROPERTY
Bond
SciTegic.value.DoubleValue
0.471

@<SCITEGIC>MOL_PROPERTY
Angle
SciTegic.value.DoubleValue
5.445

@<SCITEGIC>MOL_PROPERTY
Pdih
SciTegic.value.DoubleValue
9.685

@<SCITEGIC>MOL_PROPERTY
Idih
SciTegic.value.DoubleValue
0.000

@<SCITEGIC>MOL_PROPERTY
Tether
SciTegic.value.DoubleValue
0.000

@<TRIPOS>MOLECULE
guest-5_confgen4.mol2 : confsearch ligand conformer 105
          22          22           1
SMALL
USER_CHARGES
 
@<TRIPOS>ATOM
       1    C1      20.666329   20.636102   23.802266 C.3        1 MOL1        -0.1685
       2    H1      21.651947   20.209645   23.575394 H          1 MOL1         0.0832
       3    H2      20.863724   21.444922   24.518896 H          1 MOL1         0.0832
       4    C2      19.780522   19.569105   24.494380 C.3        1 MOL1        -0.1685
       5    H3      20.296643   19.255676   25.412126 H          1 MOL1         0.0832
       6    H4      18.839899   20.030243   24.824840 H          1 MOL1         0.0832
       7    C3      19.460468   18.297054   23.661255 C.3        1 MOL1        -0.1685
       8    H5      18.433677   18.347735   23.276358 H          1 MOL1         0.0832
       9    H6      19.465723   17.433086   24.339611 H          1 MOL1         0.0832
      10    C4      20.438538   18.015359   22.490043 C.3        1 MOL1        -0.1761
      11    H7      21.467840   18.029148   22.869480 H          1 MOL1         0.0832
      12    H8      20.278480   16.984141   22.147468 H          1 MOL1         0.0832
      13    C5      20.331044   18.974629   21.268520 C.3        1 MOL1         0.1218
      14    H9      21.349476   19.275647   20.983474 H          1 MOL1         0.0789
      15    C6      19.491383   20.258100   21.487443 C.3        1 MOL1        -0.1761
      16    H10     19.389927   20.784238   20.529350 H          1 MOL1         0.0832
      17    H11     18.468205   19.985584   21.772806 H          1 MOL1         0.0832
      18    C7      20.066012   21.259558   22.520251 C.3        1 MOL1        -0.1685
      19    H12     20.846583   21.861552   22.035354 H          1 MOL1         0.0832
      20    H13     19.271926   21.964998   22.800346 H          1 MOL1         0.0832
      21    O1      19.744916   18.261289   20.185572 O.3        1 MOL1        -0.5509
      22    H14     19.741994   18.867990   19.416102 H          1 MOL1         0.3779
@<TRIPOS>BOND
    1     1     2    1
    2     1     3    1
    3     1     4    1
    4     4     5    1
    5     4     6    1
    6     4     7    1
    7     7     8    1
    8     7     9    1
    9     7    10    1
   10    10    11    1
   11    10    12    1
   12    10    13    1
   13    13    14    1
   14    13    15    1
   15    15    16    1
   16    15    17    1
   17     1    18    1
   18    15    18    1
   19    18    19    1
   20    18    20    1
   21    13    21    1
   22    21    22    1
@<TRIPOS>SUBSTRUCTURE
       1 MOL1            1 RESIDUE      1      MOL     
@<SCITEGIC>MOL_PROPERTY
VConf Rank
SciTegic.value.IntegerValue
105

@<SCITEGIC>MOL_PROPERTY
Conf_Id
SciTegic.value.IntegerValue
141

@<SCITEGIC>MOL_PROPERTY
Delta U+W
SciTegic.value.DoubleValue
0.000

@<SCITEGIC>MOL_PROPERTY
U+W
SciTegic.value.DoubleValue
6.423

@<SCITEGIC>MOL_PROPERTY
Grad RMS
SciTegic.value.DoubleValue
0.000000

@<SCITEGIC>MOL_PROPERTY
U
SciTegic.value.DoubleValue
8.781

@<SCITEGIC>MOL_PROPERTY
W
SciTegic.value.DoubleValue
-2.358

@<SCITEGIC>MOL_PROPERTY
W(PB)
SciTegic.value.DoubleValue
-4.373

@<SCITEGIC>MOL_PROPERTY
W(SA)
SciTegic.value.DoubleValue
2.015

@<SCITEGIC>MOL_PROPERTY
Valence
SciTegic.value.DoubleValue
13.328

@<SCITEGIC>MOL_PROPERTY
Coulomb
SciTegic.value.DoubleValue
-8.387

@<SCITEGIC>MOL_PROPERTY
VdW
SciTegic.value.DoubleValue
3.840

@<SCITEGIC>MOL_PROPERTY
VdW6
SciTegic.value.DoubleValue
-9.744

@<SCITEGIC>MOL_PROPERTY
VdW12
SciTegic.value.DoubleValue
13.584

@<SCITEGIC>MOL_PROPERTY
Bond
SciTegic.value.DoubleValue
0.436

@<SCITEGIC>MOL_PROPERTY
Angle
SciTegic.value.DoubleValue
3.478

@<SCITEGIC>MOL_PROPERTY
Pdih
SciTegic.value.DoubleValue
9.415

@<SCITEGIC>MOL_PROPERTY
Idih
SciTegic.value.DoubleValue
0.000

@<SCITEGIC>MOL_PROPERTY
Tether
SciTegic.value.DoubleValue
0.000

@<TRIPOS>MOLECULE
guest-5_confgen4.mol2 : confsearch ligand conformer 106
          22          22           1
SMALL
USER_CHARGES
 
@<TRIPOS>ATOM
       1    C1      20.178868   20.974459   21.581282 C.3        1 MOL1        -0.1685
       2    H1      21.228704   20.683587   21.440404 H          1 MOL1         0.0832
       3    H2      20.012956   21.840032   20.925416 H          1 MOL1         0.0832
       4    C2      19.921953   21.432451   23.037267 C.3        1 MOL1        -0.1685
       5    H3      20.449540   22.381543   23.203788 H          1 MOL1         0.0832
       6    H4      18.854415   21.658110   23.165015 H          1 MOL1         0.0832
       7    C3      20.367989   20.434608   24.130744 C.3        1 MOL1        -0.1685
       8    H5      20.072055   20.841821   25.107180 H          1 MOL1         0.0832
       9    H6      21.465085   20.379797   24.149094 H          1 MOL1         0.0832
      10    C4      19.782678   19.007918   23.992366 C.3        1 MOL1        -0.1761
      11    H7      19.979765   18.475680   24.932240 H          1 MOL1         0.0832
      12    H8      18.690775   19.045940   23.886065 H          1 MOL1         0.0832
      13    C5      20.412844   18.215223   22.825253 C.3        1 MOL1         0.1218
      14    H9      21.460369   18.532153   22.719942 H          1 MOL1         0.0789
      15    C6      19.708246   18.409145   21.463184 C.3        1 MOL1        -0.1761
      16    H10     20.403968   18.080043   20.680552 H          1 MOL1         0.0832
      17    H11     18.844644   17.733512   21.401357 H          1 MOL1         0.0832
      18    C7      19.226146   19.843065   21.129273 C.3        1 MOL1        -0.1685
      19    H12     19.084645   19.908961   20.041863 H          1 MOL1         0.0832
      20    H13     18.231448   20.007198   21.565560 H          1 MOL1         0.0832
      21    O1      20.382916   16.829227   23.143588 O.3        1 MOL1        -0.5509
      22    H14     20.899048   16.718035   23.969337 H          1 MOL1         0.3779
@<TRIPOS>BOND
    1     1     2    1
    2     1     3    1
    3     1     4    1
    4     4     5    1
    5     4     6    1
    6     4     7    1
    7     7     8    1
    8     7     9    1
    9     7    10    1
   10    10    11    1
   11    10    12    1
   12    10    13    1
   13    13    14    1
   14    13    15    1
   15    15    16    1
   16    15    17    1
   17     1    18    1
   18    15    18    1
   19    18    19    1
   20    18    20    1
   21    13    21    1
   22    21    22    1
@<TRIPOS>SUBSTRUCTURE
       1 MOL1            1 RESIDUE      1      MOL     
@<SCITEGIC>MOL_PROPERTY
VConf Rank
SciTegic.value.IntegerValue
106

@<SCITEGIC>MOL_PROPERTY
Conf_Id
SciTegic.value.IntegerValue
144

@<SCITEGIC>MOL_PROPERTY
Delta U+W
SciTegic.value.DoubleValue
-3.291

@<SCITEGIC>MOL_PROPERTY
U+W
SciTegic.value.DoubleValue
3.132

@<SCITEGIC>MOL_PROPERTY
Grad RMS
SciTegic.value.DoubleValue
0.000000

@<SCITEGIC>MOL_PROPERTY
U
SciTegic.value.DoubleValue
5.411

@<SCITEGIC>MOL_PROPERTY
W
SciTegic.value.DoubleValue
-2.279

@<SCITEGIC>MOL_PROPERTY
W(PB)
SciTegic.value.DoubleValue
-4.300

@<SCITEGIC>MOL_PROPERTY
W(SA)
SciTegic.value.DoubleValue
2.021

@<SCITEGIC>MOL_PROPERTY
Valence
SciTegic.value.DoubleValue
11.909

@<SCITEGIC>MOL_PROPERTY
Coulomb
SciTegic.value.DoubleValue
-8.733

@<SCITEGIC>MOL_PROPERTY
VdW
SciTegic.value.DoubleValue
2.236

@<SCITEGIC>MOL_PROPERTY
VdW6
SciTegic.value.DoubleValue
-8.936

@<SCITEGIC>MOL_PROPERTY
VdW12
SciTegic.value.DoubleValue
11.172

@<SCITEGIC>MOL_PROPERTY
Bond
SciTegic.value.DoubleValue
0.223

@<SCITEGIC>MOL_PROPERTY
Angle
SciTegic.value.DoubleValue
2.457

@<SCITEGIC>MOL_PROPERTY
Pdih
SciTegic.value.DoubleValue
9.228

@<SCITEGIC>MOL_PROPERTY
Idih
SciTegic.value.DoubleValue
0.000

@<SCITEGIC>MOL_PROPERTY
Tether
SciTegic.value.DoubleValue
0.000

@<TRIPOS>MOLECULE
guest-5_confgen4.mol2 : confsearch ligand conformer 107
          22          22           1
SMALL
USER_CHARGES
 
@<TRIPOS>ATOM
       1    C1      20.086341   19.851815   20.952654 C.3        1 MOL1        -0.1685
       2    H1      20.329219   19.786581   19.883240 H          1 MOL1         0.0832
       3    H2      19.497431   20.770997   21.075012 H          1 MOL1         0.0832
       4    C2      21.414488   19.939288   21.740340 C.3        1 MOL1        -0.1685
       5    H3      21.824984   18.929692   21.878121 H          1 MOL1         0.0832
       6    H4      22.154572   20.475532   21.130656 H          1 MOL1         0.0832
       7    C3      21.319114   20.652624   23.110733 C.3        1 MOL1        -0.1685
       8    H5      21.392334   21.737622   22.954738 H          1 MOL1         0.0832
       9    H6      22.202440   20.376272   23.702666 H          1 MOL1         0.0832
      10    C4      20.045113   20.370375   23.944638 C.3        1 MOL1        -0.1761
      11    H7      20.255779   20.651615   24.985308 H          1 MOL1         0.0832
      12    H8      19.241170   21.039820   23.612355 H          1 MOL1         0.0832
      13    C5      19.545539   18.908969   23.896555 C.3        1 MOL1         0.1218
      14    H9      20.405572   18.227962   23.825554 H          1 MOL1         0.0789
      15    C6      18.581021   18.651001   22.716667 C.3        1 MOL1        -0.1761
      16    H10     18.072389   17.691706   22.881518 H          1 MOL1         0.0832
      17    H11     17.793152   19.415423   22.713701 H          1 MOL1         0.0832
      18    C7      19.247755   18.604475   21.321312 C.3        1 MOL1        -0.1685
      19    H12     19.877281   17.707083   21.248439 H          1 MOL1         0.0832
      20    H13     18.458324   18.478016   20.567923 H          1 MOL1         0.0832
      21    O1      18.842956   18.637091   25.101823 O.3        1 MOL1        -0.5509
      22    H14     18.089101   19.261668   25.129476 H          1 MOL1         0.3779
@<TRIPOS>BOND
    1     1     2    1
    2     1     3    1
    3     1     4    1
    4     4     5    1
    5     4     6    1
    6     4     7    1
    7     7     8    1
    8     7     9    1
    9     7    10    1
   10    10    11    1
   11    10    12    1
   12    10    13    1
   13    13    14    1
   14    13    15    1
   15    15    16    1
   16    15    17    1
   17     1    18    1
   18    15    18    1
   19    18    19    1
   20    18    20    1
   21    13    21    1
   22    21    22    1
@<TRIPOS>SUBSTRUCTURE
       1 MOL1            1 RESIDUE      1      MOL     
@<SCITEGIC>MOL_PROPERTY
VConf Rank
SciTegic.value.IntegerValue
107

@<SCITEGIC>MOL_PROPERTY
Conf_Id
SciTegic.value.IntegerValue
76

@<SCITEGIC>MOL_PROPERTY
Delta U+W
SciTegic.value.DoubleValue
-3.175

@<SCITEGIC>MOL_PROPERTY
U+W
SciTegic.value.DoubleValue
3.248

@<SCITEGIC>MOL_PROPERTY
Grad RMS
SciTegic.value.DoubleValue
0.000000

@<SCITEGIC>MOL_PROPERTY
U
SciTegic.value.DoubleValue
5.336

@<SCITEGIC>MOL_PROPERTY
W
SciTegic.value.DoubleValue
-2.088

@<SCITEGIC>MOL_PROPERTY
W(PB)
SciTegic.value.DoubleValue
-4.098

@<SCITEGIC>MOL_PROPERTY
W(SA)
SciTegic.value.DoubleValue
2.010

@<SCITEGIC>MOL_PROPERTY
Valence
SciTegic.value.DoubleValue
12.390

@<SCITEGIC>MOL_PROPERTY
Coulomb
SciTegic.value.DoubleValue
-9.270

@<SCITEGIC>MOL_PROPERTY
VdW
SciTegic.value.DoubleValue
2.216

@<SCITEGIC>MOL_PROPERTY
VdW6
SciTegic.value.DoubleValue
-8.967

@<SCITEGIC>MOL_PROPERTY
VdW12
SciTegic.value.DoubleValue
11.183

@<SCITEGIC>MOL_PROPERTY
Bond
SciTegic.value.DoubleValue
0.218

@<SCITEGIC>MOL_PROPERTY
Angle
SciTegic.value.DoubleValue
2.426

@<SCITEGIC>MOL_PROPERTY
Pdih
SciTegic.value.DoubleValue
9.745

@<SCITEGIC>MOL_PROPERTY
Idih
SciTegic.value.DoubleValue
0.000

@<SCITEGIC>MOL_PROPERTY
Tether
SciTegic.value.DoubleValue
0.000

@<TRIPOS>MOLECULE
guest-5_confgen4.mol2 : confsearch ligand conformer 108
          22          22           1
SMALL
USER_CHARGES
 
@<TRIPOS>ATOM
       1    C1      18.437098   18.646671   22.846368 C.3        1 MOL1        -0.1685
       2    H1      17.957684   18.006481   22.093307 H          1 MOL1         0.0832
       3    H2      17.804961   18.577811   23.742178 H          1 MOL1         0.0832
       4    C2      18.414473   20.104399   22.327531 C.3        1 MOL1        -0.1685
       5    H3      18.566931   20.108780   21.239773 H          1 MOL1         0.0832
       6    H4      17.403450   20.504621   22.483863 H          1 MOL1         0.0832
       7    C3      19.438452   21.052221   22.994345 C.3        1 MOL1        -0.1685
       8    H5      19.546357   20.825473   24.063820 H          1 MOL1         0.0832
       9    H6      19.043012   22.075339   22.938230 H          1 MOL1         0.0832
      10    C4      20.817162   21.039740   22.286474 C.3        1 MOL1        -0.1761
      11    H7      20.671520   21.197260   21.210143 H          1 MOL1         0.0832
      12    H8      21.397605   21.904077   22.634931 H          1 MOL1         0.0832
      13    C5      21.679013   19.773209   22.491924 C.3        1 MOL1         0.1218
      14    H9      22.522304   19.846319   21.790060 H          1 MOL1         0.0789
      15    C6      20.959500   18.432093   22.201758 C.3        1 MOL1        -0.1761
      16    H10     20.572316   18.432246   21.174642 H          1 MOL1         0.0832
      17    H11     21.715802   17.637209   22.232679 H          1 MOL1         0.0832
      18    C7      19.827137   18.063303   23.195219 C.3        1 MOL1        -0.1685
      19    H12     19.733473   16.969631   23.234367 H          1 MOL1         0.0832
      20    H13     20.104813   18.367744   24.212888 H          1 MOL1         0.0832
      21    O1      22.203007   19.771228   23.816103 O.3        1 MOL1        -0.5509
      22    H14     22.696147   18.931954   23.919622 H          1 MOL1         0.3779
@<TRIPOS>BOND
    1     1     2    1
    2     1     3    1
    3     1     4    1
    4     4     5    1
    5     4     6    1
    6     4     7    1
    7     7     8    1
    8     7     9    1
    9     7    10    1
   10    10    11    1
   11    10    12    1
   12    10    13    1
   13    13    14    1
   14    13    15    1
   15    15    16    1
   16    15    17    1
   17     1    18    1
   18    15    18    1
   19    18    19    1
   20    18    20    1
   21    13    21    1
   22    21    22    1
@<TRIPOS>SUBSTRUCTURE
       1 MOL1            1 RESIDUE      1      MOL     
@<SCITEGIC>MOL_PROPERTY
VConf Rank
SciTegic.value.IntegerValue
108

@<SCITEGIC>MOL_PROPERTY
Conf_Id
SciTegic.value.IntegerValue
95

@<SCITEGIC>MOL_PROPERTY
Delta U+W
SciTegic.value.DoubleValue
-2.289

@<SCITEGIC>MOL_PROPERTY
U+W
SciTegic.value.DoubleValue
4.134

@<SCITEGIC>MOL_PROPERTY
Grad RMS
SciTegic.value.DoubleValue
0.000000

@<SCITEGIC>MOL_PROPERTY
U
SciTegic.value.DoubleValue
6.373

@<SCITEGIC>MOL_PROPERTY
W
SciTegic.value.DoubleValue
-2.240

@<SCITEGIC>MOL_PROPERTY
W(PB)
SciTegic.value.DoubleValue
-4.254

@<SCITEGIC>MOL_PROPERTY
W(SA)
SciTegic.value.DoubleValue
2.015

@<SCITEGIC>MOL_PROPERTY
Valence
SciTegic.value.DoubleValue
12.093

@<SCITEGIC>MOL_PROPERTY
Coulomb
SciTegic.value.DoubleValue
-8.058

@<SCITEGIC>MOL_PROPERTY
VdW
SciTegic.value.DoubleValue
2.339

@<SCITEGIC>MOL_PROPERTY
VdW6
SciTegic.value.DoubleValue
-9.683

@<SCITEGIC>MOL_PROPERTY
VdW12
SciTegic.value.DoubleValue
12.022

@<SCITEGIC>MOL_PROPERTY
Bond
SciTegic.value.DoubleValue
0.268

@<SCITEGIC>MOL_PROPERTY
Angle
SciTegic.value.DoubleValue
3.005

@<SCITEGIC>MOL_PROPERTY
Pdih
SciTegic.value.DoubleValue
8.820

@<SCITEGIC>MOL_PROPERTY
Idih
SciTegic.value.DoubleValue
0.000

@<SCITEGIC>MOL_PROPERTY
Tether
SciTegic.value.DoubleValue
0.000

@<TRIPOS>MOLECULE
guest-5_confgen4.mol2 : confsearch ligand conformer 109
          22          22           1
SMALL
USER_CHARGES
 
@<TRIPOS>ATOM
       1    C1      20.597035   19.762186   20.881914 C.3        1 MOL1        -0.1685
       2    H1      20.236662   19.180340   20.022647 H          1 MOL1         0.0832
       3    H2      21.323603   20.477797   20.473513 H          1 MOL1         0.0832
       4    C2      21.330202   18.798744   21.845539 C.3        1 MOL1        -0.1685
       5    H3      20.820485   17.825779   21.848117 H          1 MOL1         0.0832
       6    H4      22.330564   18.604656   21.435168 H          1 MOL1         0.0832
       7    C3      21.473773   19.308602   23.298450 C.3        1 MOL1        -0.1685
       8    H5      21.663349   20.390486   23.318586 H          1 MOL1         0.0832
       9    H6      22.361593   18.835196   23.739005 H          1 MOL1         0.0832
      10    C4      20.255346   18.942666   24.183229 C.3        1 MOL1        -0.1761
      11    H7      20.040639   17.871818   24.073308 H          1 MOL1         0.0832
      12    H8      20.533554   19.076984   25.236577 H          1 MOL1         0.0832
      13    C5      18.956261   19.737317   23.917443 C.3        1 MOL1         0.1218
      14    H9      18.159088   19.244235   24.492322 H          1 MOL1         0.0789
      15    C6      18.495989   19.769828   22.438448 C.3        1 MOL1        -0.1761
      16    H10     18.357913   18.746560   22.066499 H          1 MOL1         0.0832
      17    H11     17.500981   20.232857   22.418640 H          1 MOL1         0.0832
      18    C7      19.417330   20.566528   21.478323 C.3        1 MOL1        -0.1685
      19    H12     18.812569   20.946916   20.644184 H          1 MOL1         0.0832
      20    H13     19.803423   21.459679   21.987079 H          1 MOL1         0.0832
      21    O1      19.104692   21.064418   24.413089 O.3        1 MOL1        -0.5509
      22    H14     19.411284   20.986224   25.339412 H          1 MOL1         0.3779
@<TRIPOS>BOND
    1     1     2    1
    2     1     3    1
    3     1     4    1
    4     4     5    1
    5     4     6    1
    6     4     7    1
    7     7     8    1
    8     7     9    1
    9     7    10    1
   10    10    11    1
   11    10    12    1
   12    10    13    1
   13    13    14    1
   14    13    15    1
   15    15    16    1
   16    15    17    1
   17     1    18    1
   18    15    18    1
   19    18    19    1
   20    18    20    1
   21    13    21    1
   22    21    22    1
@<TRIPOS>SUBSTRUCTURE
       1 MOL1            1 RESIDUE      1      MOL     
@<SCITEGIC>MOL_PROPERTY
VConf Rank
SciTegic.value.IntegerValue
109

@<SCITEGIC>MOL_PROPERTY
Conf_Id
SciTegic.value.IntegerValue
41

@<SCITEGIC>MOL_PROPERTY
Delta U+W
SciTegic.value.DoubleValue
-2.114

@<SCITEGIC>MOL_PROPERTY
U+W
SciTegic.value.DoubleValue
4.310

@<SCITEGIC>MOL_PROPERTY
Grad RMS
SciTegic.value.DoubleValue
0.000000

@<SCITEGIC>MOL_PROPERTY
U
SciTegic.value.DoubleValue
6.598

@<SCITEGIC>MOL_PROPERTY
W
SciTegic.value.DoubleValue
-2.289

@<SCITEGIC>MOL_PROPERTY
W(PB)
SciTegic.value.DoubleValue
-4.294

@<SCITEGIC>MOL_PROPERTY
W(SA)
SciTegic.value.DoubleValue
2.005

@<SCITEGIC>MOL_PROPERTY
Valence
SciTegic.value.DoubleValue
12.082

@<SCITEGIC>MOL_PROPERTY
Coulomb
SciTegic.value.DoubleValue
-7.801

@<SCITEGIC>MOL_PROPERTY
VdW
SciTegic.value.DoubleValue
2.317

@<SCITEGIC>MOL_PROPERTY
VdW6
SciTegic.value.DoubleValue
-9.658

@<SCITEGIC>MOL_PROPERTY
VdW12
SciTegic.value.DoubleValue
11.975

@<SCITEGIC>MOL_PROPERTY
Bond
SciTegic.value.DoubleValue
0.267

@<SCITEGIC>MOL_PROPERTY
Angle
SciTegic.value.DoubleValue
3.051

@<SCITEGIC>MOL_PROPERTY
Pdih
SciTegic.value.DoubleValue
8.764

@<SCITEGIC>MOL_PROPERTY
Idih
SciTegic.value.DoubleValue
0.000

@<SCITEGIC>MOL_PROPERTY
Tether
SciTegic.value.DoubleValue
0.000

@<TRIPOS>MOLECULE
guest-5_confgen4.mol2 : confsearch ligand conformer 110
          22          22           1
SMALL
USER_CHARGES
 
@<TRIPOS>ATOM
       1    C1      21.660578   19.937831   22.346129 C.3        1 MOL1        -0.1685
       2    H1      22.677306   20.001667   21.935351 H          1 MOL1         0.0832
       3    H2      21.455398   20.910987   22.813082 H          1 MOL1         0.0832
       4    C2      21.646390   18.810765   23.402967 C.3        1 MOL1        -0.1685
       5    H3      21.791234   17.840935   22.907960 H          1 MOL1         0.0832
       6    H4      22.511292   18.941907   24.067274 H          1 MOL1         0.0832
       7    C3      20.371590   18.759746   24.273315 C.3        1 MOL1        -0.1685
       8    H5      20.340104   19.641348   24.927284 H          1 MOL1         0.0832
       9    H6      20.456378   17.896745   24.947232 H          1 MOL1         0.0832
      10    C4      19.039302   18.635070   23.485502 C.3        1 MOL1        -0.1761
      11    H7      19.098306   17.800566   22.775305 H          1 MOL1         0.0832
      12    H8      18.254577   18.359660   24.201701 H          1 MOL1         0.0832
      13    C5      18.560746   19.915672   22.754014 C.3        1 MOL1         0.1218
      14    H9      17.494050   19.770580   22.529546 H          1 MOL1         0.0789
      15    C6      19.249422   20.217707   21.397681 C.3        1 MOL1        -0.1761
      16    H10     18.616664   19.810384   20.598451 H          1 MOL1         0.0832
      17    H11     19.256770   21.303372   21.234128 H          1 MOL1         0.0832
      18    C7      20.683254   19.674239   21.179350 C.3        1 MOL1        -0.1685
      19    H12     20.645278   18.598246   20.962069 H          1 MOL1         0.0832
      20    H13     21.085543   20.143768   20.271394 H          1 MOL1         0.0832
      21    O1      18.670489   21.049326   23.610581 O.3        1 MOL1        -0.5509
      22    H14     18.319215   21.815110   23.112493 H          1 MOL1         0.3779
@<TRIPOS>BOND
    1     1     2    1
    2     1     3    1
    3     1     4    1
    4     4     5    1
    5     4     6    1
    6     4     7    1
    7     7     8    1
    8     7     9    1
    9     7    10    1
   10    10    11    1
   11    10    12    1
   12    10    13    1
   13    13    14    1
   14    13    15    1
   15    15    16    1
   16    15    17    1
   17     1    18    1
   18    15    18    1
   19    18    19    1
   20    18    20    1
   21    13    21    1
   22    21    22    1
@<TRIPOS>SUBSTRUCTURE
       1 MOL1            1 RESIDUE      1      MOL     
@<SCITEGIC>MOL_PROPERTY
VConf Rank
SciTegic.value.IntegerValue
110

@<SCITEGIC>MOL_PROPERTY
Conf_Id
SciTegic.value.IntegerValue
104

@<SCITEGIC>MOL_PROPERTY
Delta U+W
SciTegic.value.DoubleValue
-1.172

@<SCITEGIC>MOL_PROPERTY
U+W
SciTegic.value.DoubleValue
5.252

@<SCITEGIC>MOL_PROPERTY
Grad RMS
SciTegic.value.DoubleValue
0.000000

@<SCITEGIC>MOL_PROPERTY
U
SciTegic.value.DoubleValue
7.482

@<SCITEGIC>MOL_PROPERTY
W
SciTegic.value.DoubleValue
-2.230

@<SCITEGIC>MOL_PROPERTY
W(PB)
SciTegic.value.DoubleValue
-4.220

@<SCITEGIC>MOL_PROPERTY
W(SA)
SciTegic.value.DoubleValue
1.990

@<SCITEGIC>MOL_PROPERTY
Valence
SciTegic.value.DoubleValue
12.309

@<SCITEGIC>MOL_PROPERTY
Coulomb
SciTegic.value.DoubleValue
-7.084

@<SCITEGIC>MOL_PROPERTY
VdW
SciTegic.value.DoubleValue
2.258

@<SCITEGIC>MOL_PROPERTY
VdW6
SciTegic.value.DoubleValue
-9.770

@<SCITEGIC>MOL_PROPERTY
VdW12
SciTegic.value.DoubleValue
12.028

@<SCITEGIC>MOL_PROPERTY
Bond
SciTegic.value.DoubleValue
0.284

@<SCITEGIC>MOL_PROPERTY
Angle
SciTegic.value.DoubleValue
3.491

@<SCITEGIC>MOL_PROPERTY
Pdih
SciTegic.value.DoubleValue
8.535

@<SCITEGIC>MOL_PROPERTY
Idih
SciTegic.value.DoubleValue
0.000

@<SCITEGIC>MOL_PROPERTY
Tether
SciTegic.value.DoubleValue
0.000

@<TRIPOS>MOLECULE
guest-5_confgen4.mol2 : confsearch ligand conformer 111
          22          22           1
SMALL
USER_CHARGES
 
@<TRIPOS>ATOM
       1    C1      20.727174   18.296709   23.443164 C.3        1 MOL1        -0.1685
       2    H1      19.832823   18.124601   24.057167 H          1 MOL1         0.0832
       3    H2      21.458910   17.539415   23.756224 H          1 MOL1         0.0832
       4    C2      21.334909   19.688626   23.730754 C.3        1 MOL1        -0.1685
       5    H3      21.917594   19.631169   24.660499 H          1 MOL1         0.0832
       6    H4      22.067973   19.933503   22.951017 H          1 MOL1         0.0832
       7    C3      20.317110   20.847370   23.882646 C.3        1 MOL1        -0.1685
       8    H5      20.823279   21.789924   23.632247 H          1 MOL1         0.0832
       9    H6      20.046601   20.935268   24.943790 H          1 MOL1         0.0832
      10    C4      18.997496   20.746392   23.070473 C.3        1 MOL1        -0.1761
      11    H7      18.311712   20.060138   23.584003 H          1 MOL1         0.0832
      12    H8      18.503051   21.725872   23.104305 H          1 MOL1         0.0832
      13    C5      19.112720   20.317270   21.589744 C.3        1 MOL1         0.1218
      14    H9      18.206733   20.669350   21.075830 H          1 MOL1         0.0789
      15    C6      19.159729   18.782911   21.411419 C.3        1 MOL1        -0.1761
      16    H10     18.273512   18.346065   21.889797 H          1 MOL1         0.0832
      17    H11     19.058145   18.559577   20.341350 H          1 MOL1         0.0832
      18    C7      20.423559   18.063302   21.944044 C.3        1 MOL1        -0.1685
      19    H12     20.289412   16.984947   21.783212 H          1 MOL1         0.0832
      20    H13     21.295688   18.345482   21.338864 H          1 MOL1         0.0832
      21    O1      20.248468   20.915270   20.984233 O.3        1 MOL1        -0.5509
      22    H14     20.997111   20.624357   21.542076 H          1 MOL1         0.3779
@<TRIPOS>BOND
    1     1     2    1
    2     1     3    1
    3     1     4    1
    4     4     5    1
    5     4     6    1
    6     4     7    1
    7     7     8    1
    8     7     9    1
    9     7    10    1
   10    10    11    1
   11    10    12    1
   12    10    13    1
   13    13    14    1
   14    13    15    1
   15    15    16    1
   16    15    17    1
   17     1    18    1
   18    15    18    1
   19    18    19    1
   20    18    20    1
   21    13    21    1
   22    21    22    1
@<TRIPOS>SUBSTRUCTURE
       1 MOL1            1 RESIDUE      1      MOL     
@<SCITEGIC>MOL_PROPERTY
VConf Rank
SciTegic.value.IntegerValue
111

@<SCITEGIC>MOL_PROPERTY
Conf_Id
SciTegic.value.IntegerValue
99

@<SCITEGIC>MOL_PROPERTY
Delta U+W
SciTegic.value.DoubleValue
-3.852

@<SCITEGIC>MOL_PROPERTY
U+W
SciTegic.value.DoubleValue
2.572

@<SCITEGIC>MOL_PROPERTY
Grad RMS
SciTegic.value.DoubleValue
0.000000

@<SCITEGIC>MOL_PROPERTY
U
SciTegic.value.DoubleValue
3.922

@<SCITEGIC>MOL_PROPERTY
W
SciTegic.value.DoubleValue
-1.350

@<SCITEGIC>MOL_PROPERTY
W(PB)
SciTegic.value.DoubleValue
-3.345

@<SCITEGIC>MOL_PROPERTY
W(SA)
SciTegic.value.DoubleValue
1.995

@<SCITEGIC>MOL_PROPERTY
Valence
SciTegic.value.DoubleValue
12.571

@<SCITEGIC>MOL_PROPERTY
Coulomb
SciTegic.value.DoubleValue
-10.581

@<SCITEGIC>MOL_PROPERTY
VdW
SciTegic.value.DoubleValue
1.932

@<SCITEGIC>MOL_PROPERTY
VdW6
SciTegic.value.DoubleValue
-10.483

@<SCITEGIC>MOL_PROPERTY
VdW12
SciTegic.value.DoubleValue
12.415

@<SCITEGIC>MOL_PROPERTY
Bond
SciTegic.value.DoubleValue
0.268

@<SCITEGIC>MOL_PROPERTY
Angle
SciTegic.value.DoubleValue
3.728

@<SCITEGIC>MOL_PROPERTY
Pdih
SciTegic.value.DoubleValue
8.575

@<SCITEGIC>MOL_PROPERTY
Idih
SciTegic.value.DoubleValue
0.000

@<SCITEGIC>MOL_PROPERTY
Tether
SciTegic.value.DoubleValue
0.000

@<TRIPOS>MOLECULE
guest-5_confgen4.mol2 : confsearch ligand conformer 112
          22          22           1
SMALL
USER_CHARGES
 
@<TRIPOS>ATOM
       1    C1      19.372502   19.753524   24.180512 C.3        1 MOL1        -0.1685
       2    H1      18.687196   20.250082   24.881281 H          1 MOL1         0.0832
       3    H2      19.817736   18.930462   24.755309 H          1 MOL1         0.0832
       4    C2      20.470119   20.781307   23.777089 C.3        1 MOL1        -0.1685
       5    H3      20.259988   21.722670   24.303370 H          1 MOL1         0.0832
       6    H4      21.448936   20.457787   24.155647 H          1 MOL1         0.0832
       7    C3      20.578454   21.100244   22.264048 C.3        1 MOL1        -0.1685
       8    H5      21.242054   21.966733   22.139313 H          1 MOL1         0.0832
       9    H6      19.606265   21.441109   21.886913 H          1 MOL1         0.0832
      10    C4      21.118178   19.954746   21.363292 C.3        1 MOL1        -0.1761
      11    H7      20.785163   20.141767   20.334280 H          1 MOL1         0.0832
      12    H8      22.213583   20.025780   21.331071 H          1 MOL1         0.0832
      13    C5      20.756207   18.496441   21.738102 C.3        1 MOL1         0.1218
      14    H9      21.027694   17.868667   20.877306 H          1 MOL1         0.0789
      15    C6      19.264073   18.218112   22.045043 C.3        1 MOL1        -0.1761
      16    H10     18.711945   18.199638   21.096595 H          1 MOL1         0.0832
      17    H11     19.192992   17.196647   22.441974 H          1 MOL1         0.0832
      18    C7      18.523565   19.175808   23.019346 C.3        1 MOL1        -0.1685
      19    H12     18.062740   19.995397   22.454120 H          1 MOL1         0.0832
      20    H13     17.675342   18.626664   23.450257 H          1 MOL1         0.0832
      21    O1      21.554235   18.074093   22.832641 O.3        1 MOL1        -0.5509
      22    H14     21.276905   18.658225   23.566678 H          1 MOL1         0.3779
@<TRIPOS>BOND
    1     1     2    1
    2     1     3    1
    3     1     4    1
    4     4     5    1
    5     4     6    1
    6     4     7    1
    7     7     8    1
    8     7     9    1
    9     7    10    1
   10    10    11    1
   11    10    12    1
   12    10    13    1
   13    13    14    1
   14    13    15    1
   15    15    16    1
   16    15    17    1
   17     1    18    1
   18    15    18    1
   19    18    19    1
   20    18    20    1
   21    13    21    1
   22    21    22    1
@<TRIPOS>SUBSTRUCTURE
       1 MOL1            1 RESIDUE      1      MOL     
@<SCITEGIC>MOL_PROPERTY
VConf Rank
SciTegic.value.IntegerValue
112

@<SCITEGIC>MOL_PROPERTY
Conf_Id
SciTegic.value.IntegerValue
98

@<SCITEGIC>MOL_PROPERTY
Delta U+W
SciTegic.value.DoubleValue
0.930

@<SCITEGIC>MOL_PROPERTY
U+W
SciTegic.value.DoubleValue
7.353

@<SCITEGIC>MOL_PROPERTY
Grad RMS
SciTegic.value.DoubleValue
0.000000

@<SCITEGIC>MOL_PROPERTY
U
SciTegic.value.DoubleValue
8.455

@<SCITEGIC>MOL_PROPERTY
W
SciTegic.value.DoubleValue
-1.102

@<SCITEGIC>MOL_PROPERTY
W(PB)
SciTegic.value.DoubleValue
-3.101

@<SCITEGIC>MOL_PROPERTY
W(SA)
SciTegic.value.DoubleValue
2.000

@<SCITEGIC>MOL_PROPERTY
Valence
SciTegic.value.DoubleValue
15.601

@<SCITEGIC>MOL_PROPERTY
Coulomb
SciTegic.value.DoubleValue
-10.573

@<SCITEGIC>MOL_PROPERTY
VdW
SciTegic.value.DoubleValue
3.427

@<SCITEGIC>MOL_PROPERTY
VdW6
SciTegic.value.DoubleValue
-11.360

@<SCITEGIC>MOL_PROPERTY
VdW12
SciTegic.value.DoubleValue
14.787

@<SCITEGIC>MOL_PROPERTY
Bond
SciTegic.value.DoubleValue
0.471

@<SCITEGIC>MOL_PROPERTY
Angle
SciTegic.value.DoubleValue
5.445

@<SCITEGIC>MOL_PROPERTY
Pdih
SciTegic.value.DoubleValue
9.685

@<SCITEGIC>MOL_PROPERTY
Idih
SciTegic.value.DoubleValue
0.000

@<SCITEGIC>MOL_PROPERTY
Tether
SciTegic.value.DoubleValue
0.000

@<TRIPOS>MOLECULE
guest-5_confgen4.mol2 : confsearch ligand conformer 113
          22          22           1
SMALL
USER_CHARGES
 
@<TRIPOS>ATOM
       1    C1      20.045248   20.670438   21.366005 C.3        1 MOL1        -0.1685
       2    H1      20.214422   19.821810   20.690733 H          1 MOL1         0.0832
       3    H2      19.972855   21.547707   20.708836 H          1 MOL1         0.0832
       4    C2      21.270930   20.851453   22.297184 C.3        1 MOL1        -0.1685
       5    H3      22.148578   21.022651   21.658984 H          1 MOL1         0.0832
       6    H4      21.150442   21.768667   22.889490 H          1 MOL1         0.0832
       7    C3      21.590054   19.666399   23.250311 C.3        1 MOL1        -0.1685
       8    H5      21.260764   19.904412   24.270082 H          1 MOL1         0.0832
       9    H6      22.681841   19.568537   23.321431 H          1 MOL1         0.0832
      10    C4      20.995402   18.299098   22.820675 C.3        1 MOL1        -0.1761
      11    H7      21.274861   18.096347   21.779319 H          1 MOL1         0.0832
      12    H8      21.489106   17.509833   23.403518 H          1 MOL1         0.0832
      13    C5      19.453387   18.149550   22.974608 C.3        1 MOL1         0.1218
      14    H9      19.062780   17.699068   22.050725 H          1 MOL1         0.0789
      15    C6      18.669615   19.458813   23.242542 C.3        1 MOL1        -0.1761
      16    H10     17.621437   19.209047   23.452295 H          1 MOL1         0.0832
      17    H11     19.039963   19.929253   24.161300 H          1 MOL1         0.0832
      18    C7      18.689413   20.492632   22.089010 C.3        1 MOL1        -0.1685
      19    H12     17.938446   20.204666   21.340720 H          1 MOL1         0.0832
      20    H13     18.362552   21.463408   22.485780 H          1 MOL1         0.0832
      21    O1      19.192369   17.266741   24.059824 O.3        1 MOL1        -0.5509
      22    H14     18.220788   17.145272   24.097966 H          1 MOL1         0.3779
@<TRIPOS>BOND
    1     1     2    1
    2     1     3    1
    3     1     4    1
    4     4     5    1
    5     4     6    1
    6     4     7    1
    7     7     8    1
    8     7     9    1
    9     7    10    1
   10    10    11    1
   11    10    12    1
   12    10    13    1
   13    13    14    1
   14    13    15    1
   15    15    16    1
   16    15    17    1
   17     1    18    1
   18    15    18    1
   19    18    19    1
   20    18    20    1
   21    13    21    1
   22    21    22    1
@<TRIPOS>SUBSTRUCTURE
       1 MOL1            1 RESIDUE      1      MOL     
@<SCITEGIC>MOL_PROPERTY
VConf Rank
SciTegic.value.IntegerValue
113

@<SCITEGIC>MOL_PROPERTY
Conf_Id
SciTegic.value.IntegerValue
141

@<SCITEGIC>MOL_PROPERTY
Delta U+W
SciTegic.value.DoubleValue
0.000

@<SCITEGIC>MOL_PROPERTY
U+W
SciTegic.value.DoubleValue
6.423

@<SCITEGIC>MOL_PROPERTY
Grad RMS
SciTegic.value.DoubleValue
0.000000

@<SCITEGIC>MOL_PROPERTY
U
SciTegic.value.DoubleValue
8.781

@<SCITEGIC>MOL_PROPERTY
W
SciTegic.value.DoubleValue
-2.358

@<SCITEGIC>MOL_PROPERTY
W(PB)
SciTegic.value.DoubleValue
-4.373

@<SCITEGIC>MOL_PROPERTY
W(SA)
SciTegic.value.DoubleValue
2.015

@<SCITEGIC>MOL_PROPERTY
Valence
SciTegic.value.DoubleValue
13.328

@<SCITEGIC>MOL_PROPERTY
Coulomb
SciTegic.value.DoubleValue
-8.387

@<SCITEGIC>MOL_PROPERTY
VdW
SciTegic.value.DoubleValue
3.840

@<SCITEGIC>MOL_PROPERTY
VdW6
SciTegic.value.DoubleValue
-9.744

@<SCITEGIC>MOL_PROPERTY
VdW12
SciTegic.value.DoubleValue
13.584

@<SCITEGIC>MOL_PROPERTY
Bond
SciTegic.value.DoubleValue
0.436

@<SCITEGIC>MOL_PROPERTY
Angle
SciTegic.value.DoubleValue
3.478

@<SCITEGIC>MOL_PROPERTY
Pdih
SciTegic.value.DoubleValue
9.415

@<SCITEGIC>MOL_PROPERTY
Idih
SciTegic.value.DoubleValue
0.000

@<SCITEGIC>MOL_PROPERTY
Tether
SciTegic.value.DoubleValue
0.000

@<TRIPOS>MOLECULE
guest-5_confgen4.mol2 : confsearch ligand conformer 114
          22          22           1
SMALL
USER_CHARGES
 
@<TRIPOS>ATOM
       1    C1      18.358602   19.448292   22.035088 C.3        1 MOL1        -0.1685
       2    H1      18.074259   20.340075   22.609961 H          1 MOL1         0.0832
       3    H2      17.464098   19.153703   21.469416 H          1 MOL1         0.0832
       4    C2      18.725630   18.276260   22.977047 C.3        1 MOL1        -0.1685
       5    H3      17.813754   17.940425   23.489445 H          1 MOL1         0.0832
       6    H4      19.063863   17.419788   22.377937 H          1 MOL1         0.0832
       7    C3      19.789814   18.601466   24.050400 C.3        1 MOL1        -0.1685
       8    H5      20.010113   17.678939   24.604691 H          1 MOL1         0.0832
       9    H6      19.365205   19.298583   24.785719 H          1 MOL1         0.0832
      10    C4      21.118040   19.177139   23.501223 C.3        1 MOL1        -0.1761
      11    H7      21.855073   19.145087   24.314389 H          1 MOL1         0.0832
      12    H8      21.516318   18.537890   22.702642 H          1 MOL1         0.0832
      13    C5      20.977808   20.634903   23.008387 C.3        1 MOL1         0.1218
      14    H9      20.226842   21.138847   23.633634 H          1 MOL1         0.0789
      15    C6      20.550067   20.774262   21.529565 C.3        1 MOL1        -0.1761
      16    H10     20.176728   21.796681   21.387696 H          1 MOL1         0.0832
      17    H11     21.435050   20.685180   20.885375 H          1 MOL1         0.0832
      18    C7      19.478268   19.778233   21.020430 C.3        1 MOL1        -0.1685
      19    H12     19.024761   20.201727   20.113894 H          1 MOL1         0.0832
      20    H13     19.965014   18.847620   20.698330 H          1 MOL1         0.0832
      21    O1      22.227047   21.295583   23.170004 O.3        1 MOL1        -0.5509
      22    H14     22.442703   21.261828   24.125499 H          1 MOL1         0.3779
@<TRIPOS>BOND
    1     1     2    1
    2     1     3    1
    3     1     4    1
    4     4     5    1
    5     4     6    1
    6     4     7    1
    7     7     8    1
    8     7     9    1
    9     7    10    1
   10    10    11    1
   11    10    12    1
   12    10    13    1
   13    13    14    1
   14    13    15    1
   15    15    16    1
   16    15    17    1
   17     1    18    1
   18    15    18    1
   19    18    19    1
   20    18    20    1
   21    13    21    1
   22    21    22    1
@<TRIPOS>SUBSTRUCTURE
       1 MOL1            1 RESIDUE      1      MOL     
@<SCITEGIC>MOL_PROPERTY
VConf Rank
SciTegic.value.IntegerValue
114

@<SCITEGIC>MOL_PROPERTY
Conf_Id
SciTegic.value.IntegerValue
144

@<SCITEGIC>MOL_PROPERTY
Delta U+W
SciTegic.value.DoubleValue
-3.291

@<SCITEGIC>MOL_PROPERTY
U+W
SciTegic.value.DoubleValue
3.132

@<SCITEGIC>MOL_PROPERTY
Grad RMS
SciTegic.value.DoubleValue
0.000000

@<SCITEGIC>MOL_PROPERTY
U
SciTegic.value.DoubleValue
5.411

@<SCITEGIC>MOL_PROPERTY
W
SciTegic.value.DoubleValue
-2.279

@<SCITEGIC>MOL_PROPERTY
W(PB)
SciTegic.value.DoubleValue
-4.300

@<SCITEGIC>MOL_PROPERTY
W(SA)
SciTegic.value.DoubleValue
2.021

@<SCITEGIC>MOL_PROPERTY
Valence
SciTegic.value.DoubleValue
11.909

@<SCITEGIC>MOL_PROPERTY
Coulomb
SciTegic.value.DoubleValue
-8.733

@<SCITEGIC>MOL_PROPERTY
VdW
SciTegic.value.DoubleValue
2.236

@<SCITEGIC>MOL_PROPERTY
VdW6
SciTegic.value.DoubleValue
-8.936

@<SCITEGIC>MOL_PROPERTY
VdW12
SciTegic.value.DoubleValue
11.172

@<SCITEGIC>MOL_PROPERTY
Bond
SciTegic.value.DoubleValue
0.223

@<SCITEGIC>MOL_PROPERTY
Angle
SciTegic.value.DoubleValue
2.457

@<SCITEGIC>MOL_PROPERTY
Pdih
SciTegic.value.DoubleValue
9.228

@<SCITEGIC>MOL_PROPERTY
Idih
SciTegic.value.DoubleValue
0.000

@<SCITEGIC>MOL_PROPERTY
Tether
SciTegic.value.DoubleValue
0.000

@<TRIPOS>MOLECULE
guest-5_confgen4.mol2 : confsearch ligand conformer 115
          22          22           1
SMALL
USER_CHARGES
 
@<TRIPOS>ATOM
       1    C1      18.727405   20.376467   23.578007 C.3        1 MOL1        -0.1685
       2    H1      18.182329   20.929272   24.355304 H          1 MOL1         0.0832
       3    H2      18.005745   20.198190   22.769239 H          1 MOL1         0.0832
       4    C2      19.210001   19.040720   24.190343 C.3        1 MOL1        -0.1685
       5    H3      20.141773   19.209362   24.747240 H          1 MOL1         0.0832
       6    H4      18.477824   18.707806   24.938729 H          1 MOL1         0.0832
       7    C3      19.412266   17.888919   23.176259 C.3        1 MOL1        -0.1685
       8    H5      18.444973   17.402381   22.990412 H          1 MOL1         0.0832
       9    H6      20.044670   17.124487   23.648198 H          1 MOL1         0.0832
      10    C4      20.026899   18.277717   21.809072 C.3        1 MOL1        -0.1761
      11    H7      20.413706   17.361847   21.342131 H          1 MOL1         0.0832
      12    H8      19.230251   18.636848   21.144789 H          1 MOL1         0.0832
      13    C5      21.150829   19.335881   21.877367 C.3        1 MOL1         0.1218
      14    H9      21.728649   19.200144   22.802661 H          1 MOL1         0.0789
      15    C6      20.608218   20.781670   21.812211 C.3        1 MOL1        -0.1761
      16    H10     21.445626   21.462783   21.609814 H          1 MOL1         0.0832
      17    H11     19.925310   20.878516   20.958195 H          1 MOL1         0.0832
      18    C7      19.891887   21.272769   23.092604 C.3        1 MOL1        -0.1685
      19    H12     20.627390   21.384854   23.900934 H          1 MOL1         0.0832
      20    H13     19.501247   22.281596   22.901668 H          1 MOL1         0.0832
      21    O1      22.013993   19.143302   20.764680 O.3        1 MOL1        -0.5509
      22    H14     21.465081   19.270095   19.963570 H          1 MOL1         0.3779
@<TRIPOS>BOND
    1     1     2    1
    2     1     3    1
    3     1     4    1
    4     4     5    1
    5     4     6    1
    6     4     7    1
    7     7     8    1
    8     7     9    1
    9     7    10    1
   10    10    11    1
   11    10    12    1
   12    10    13    1
   13    13    14    1
   14    13    15    1
   15    15    16    1
   16    15    17    1
   17     1    18    1
   18    15    18    1
   19    18    19    1
   20    18    20    1
   21    13    21    1
   22    21    22    1
@<TRIPOS>SUBSTRUCTURE
       1 MOL1            1 RESIDUE      1      MOL     
@<SCITEGIC>MOL_PROPERTY
VConf Rank
SciTegic.value.IntegerValue
115

@<SCITEGIC>MOL_PROPERTY
Conf_Id
SciTegic.value.IntegerValue
76

@<SCITEGIC>MOL_PROPERTY
Delta U+W
SciTegic.value.DoubleValue
-3.175

@<SCITEGIC>MOL_PROPERTY
U+W
SciTegic.value.DoubleValue
3.248

@<SCITEGIC>MOL_PROPERTY
Grad RMS
SciTegic.value.DoubleValue
0.000000

@<SCITEGIC>MOL_PROPERTY
U
SciTegic.value.DoubleValue
5.336

@<SCITEGIC>MOL_PROPERTY
W
SciTegic.value.DoubleValue
-2.088

@<SCITEGIC>MOL_PROPERTY
W(PB)
SciTegic.value.DoubleValue
-4.098

@<SCITEGIC>MOL_PROPERTY
W(SA)
SciTegic.value.DoubleValue
2.010

@<SCITEGIC>MOL_PROPERTY
Valence
SciTegic.value.DoubleValue
12.390

@<SCITEGIC>MOL_PROPERTY
Coulomb
SciTegic.value.DoubleValue
-9.270

@<SCITEGIC>MOL_PROPERTY
VdW
SciTegic.value.DoubleValue
2.216

@<SCITEGIC>MOL_PROPERTY
VdW6
SciTegic.value.DoubleValue
-8.967

@<SCITEGIC>MOL_PROPERTY
VdW12
SciTegic.value.DoubleValue
11.183

@<SCITEGIC>MOL_PROPERTY
Bond
SciTegic.value.DoubleValue
0.218

@<SCITEGIC>MOL_PROPERTY
Angle
SciTegic.value.DoubleValue
2.426

@<SCITEGIC>MOL_PROPERTY
Pdih
SciTegic.value.DoubleValue
9.745

@<SCITEGIC>MOL_PROPERTY
Idih
SciTegic.value.DoubleValue
0.000

@<SCITEGIC>MOL_PROPERTY
Tether
SciTegic.value.DoubleValue
0.000

@<TRIPOS>MOLECULE
guest-5_confgen4.mol2 : confsearch ligand conformer 116
          22          22           1
SMALL
USER_CHARGES
 
@<TRIPOS>ATOM
       1    C1      19.090194   18.065005   23.263742 C.3        1 MOL1        -0.1685
       2    H1      19.216529   17.022716   22.940548 H          1 MOL1         0.0832
       3    H2      18.328190   18.041555   24.054701 H          1 MOL1         0.0832
       4    C2      18.545366   18.880271   22.066588 C.3        1 MOL1        -0.1685
       5    H3      18.996141   18.510460   21.135717 H          1 MOL1         0.0832
       6    H4      17.470615   18.672069   21.975234 H          1 MOL1         0.0832
       7    C3      18.753923   20.409300   22.167166 C.3        1 MOL1        -0.1685
       8    H5      18.629112   20.756363   23.201963 H          1 MOL1         0.0832
       9    H6      17.963556   20.900405   21.583703 H          1 MOL1         0.0832
      10    C4      20.118484   20.867823   21.592875 C.3        1 MOL1        -0.1761
      11    H7      20.246334   20.447250   20.587248 H          1 MOL1         0.0832
      12    H8      20.092645   21.956837   21.455777 H          1 MOL1         0.0832
      13    C5      21.365766   20.523743   22.438449 C.3        1 MOL1         0.1218
      14    H9      22.243249   20.749029   21.815258 H          1 MOL1         0.0789
      15    C6      21.481388   19.039918   22.869010 C.3        1 MOL1        -0.1761
      16    H10     21.467189   18.393053   21.982307 H          1 MOL1         0.0832
      17    H11     22.472698   18.902295   23.319734 H          1 MOL1         0.0832
      18    C7      20.414345   18.564664   23.889192 C.3        1 MOL1        -0.1685
      19    H12     20.836038   17.744315   24.485536 H          1 MOL1         0.0832
      20    H13     20.197901   19.365353   24.608559 H          1 MOL1         0.0832
      21    O1      21.405552   21.370195   23.582984 O.3        1 MOL1        -0.5509
      22    H14     22.177007   21.085189   24.113938 H          1 MOL1         0.3779
@<TRIPOS>BOND
    1     1     2    1
    2     1     3    1
    3     1     4    1
    4     4     5    1
    5     4     6    1
    6     4     7    1
    7     7     8    1
    8     7     9    1
    9     7    10    1
   10    10    11    1
   11    10    12    1
   12    10    13    1
   13    13    14    1
   14    13    15    1
   15    15    16    1
   16    15    17    1
   17     1    18    1
   18    15    18    1
   19    18    19    1
   20    18    20    1
   21    13    21    1
   22    21    22    1
@<TRIPOS>SUBSTRUCTURE
       1 MOL1            1 RESIDUE      1      MOL     
@<SCITEGIC>MOL_PROPERTY
VConf Rank
SciTegic.value.IntegerValue
116

@<SCITEGIC>MOL_PROPERTY
Conf_Id
SciTegic.value.IntegerValue
95

@<SCITEGIC>MOL_PROPERTY
Delta U+W
SciTegic.value.DoubleValue
-2.289

@<SCITEGIC>MOL_PROPERTY
U+W
SciTegic.value.DoubleValue
4.134

@<SCITEGIC>MOL_PROPERTY
Grad RMS
SciTegic.value.DoubleValue
0.000000

@<SCITEGIC>MOL_PROPERTY
U
SciTegic.value.DoubleValue
6.373

@<SCITEGIC>MOL_PROPERTY
W
SciTegic.value.DoubleValue
-2.240

@<SCITEGIC>MOL_PROPERTY
W(PB)
SciTegic.value.DoubleValue
-4.254

@<SCITEGIC>MOL_PROPERTY
W(SA)
SciTegic.value.DoubleValue
2.015

@<SCITEGIC>MOL_PROPERTY
Valence
SciTegic.value.DoubleValue
12.093

@<SCITEGIC>MOL_PROPERTY
Coulomb
SciTegic.value.DoubleValue
-8.058

@<SCITEGIC>MOL_PROPERTY
VdW
SciTegic.value.DoubleValue
2.339

@<SCITEGIC>MOL_PROPERTY
VdW6
SciTegic.value.DoubleValue
-9.683

@<SCITEGIC>MOL_PROPERTY
VdW12
SciTegic.value.DoubleValue
12.022

@<SCITEGIC>MOL_PROPERTY
Bond
SciTegic.value.DoubleValue
0.268

@<SCITEGIC>MOL_PROPERTY
Angle
SciTegic.value.DoubleValue
3.005

@<SCITEGIC>MOL_PROPERTY
Pdih
SciTegic.value.DoubleValue
8.820

@<SCITEGIC>MOL_PROPERTY
Idih
SciTegic.value.DoubleValue
0.000

@<SCITEGIC>MOL_PROPERTY
Tether
SciTegic.value.DoubleValue
0.000

@<TRIPOS>MOLECULE
guest-5_confgen4.mol2 : confsearch ligand conformer 117
          22          22           1
SMALL
USER_CHARGES
 
@<TRIPOS>ATOM
       1    C1      18.237526   19.245783   22.216624 C.3        1 MOL1        -0.1685
       2    H1      17.877718   18.707622   21.329113 H          1 MOL1         0.0832
       3    H2      17.339828   19.492280   22.799862 H          1 MOL1         0.0832
       4    C2      18.906633   20.559804   21.747611 C.3        1 MOL1        -0.1685
       5    H3      19.431369   20.384768   20.798667 H          1 MOL1         0.0832
       6    H4      18.111459   21.280969   21.514332 H          1 MOL1         0.0832
       7    C3      19.881059   21.198367   22.764589 C.3        1 MOL1        -0.1685
       8    H5      19.509634   21.081449   23.791815 H          1 MOL1         0.0832
       9    H6      19.912626   22.279431   22.572939 H          1 MOL1         0.0832
      10    C4      21.325384   20.652837   22.631811 C.3        1 MOL1        -0.1761
      11    H7      21.633492   20.705106   21.579560 H          1 MOL1         0.0832
      12    H8      22.005840   21.326948   23.168035 H          1 MOL1         0.0832
      13    C5      21.560789   19.213795   23.145115 C.3        1 MOL1         0.1218
      14    H9      22.570655   18.922539   22.821942 H          1 MOL1         0.0789
      15    C6      20.581644   18.149056   22.590192 C.3        1 MOL1        -0.1761
      16    H10     20.623989   18.136539   21.493589 H          1 MOL1         0.0832
      17    H11     20.950956   17.167998   22.915712 H          1 MOL1         0.0832
      18    C7      19.112360   18.292734   23.065587 C.3        1 MOL1        -0.1685
      19    H12     18.639729   17.301415   23.054529 H          1 MOL1         0.0832
      20    H13     19.089464   18.612846   24.115646 H          1 MOL1         0.0832
      21    O1      21.532386   19.209827   24.569218 O.3        1 MOL1        -0.5509
      22    H14     22.151796   19.907702   24.865002 H          1 MOL1         0.3779
@<TRIPOS>BOND
    1     1     2    1
    2     1     3    1
    3     1     4    1
    4     4     5    1
    5     4     6    1
    6     4     7    1
    7     7     8    1
    8     7     9    1
    9     7    10    1
   10    10    11    1
   11    10    12    1
   12    10    13    1
   13    13    14    1
   14    13    15    1
   15    15    16    1
   16    15    17    1
   17     1    18    1
   18    15    18    1
   19    18    19    1
   20    18    20    1
   21    13    21    1
   22    21    22    1
@<TRIPOS>SUBSTRUCTURE
       1 MOL1            1 RESIDUE      1      MOL     
@<SCITEGIC>MOL_PROPERTY
VConf Rank
SciTegic.value.IntegerValue
117

@<SCITEGIC>MOL_PROPERTY
Conf_Id
SciTegic.value.IntegerValue
41

@<SCITEGIC>MOL_PROPERTY
Delta U+W
SciTegic.value.DoubleValue
-2.114

@<SCITEGIC>MOL_PROPERTY
U+W
SciTegic.value.DoubleValue
4.310

@<SCITEGIC>MOL_PROPERTY
Grad RMS
SciTegic.value.DoubleValue
0.000000

@<SCITEGIC>MOL_PROPERTY
U
SciTegic.value.DoubleValue
6.598

@<SCITEGIC>MOL_PROPERTY
W
SciTegic.value.DoubleValue
-2.289

@<SCITEGIC>MOL_PROPERTY
W(PB)
SciTegic.value.DoubleValue
-4.294

@<SCITEGIC>MOL_PROPERTY
W(SA)
SciTegic.value.DoubleValue
2.005

@<SCITEGIC>MOL_PROPERTY
Valence
SciTegic.value.DoubleValue
12.082

@<SCITEGIC>MOL_PROPERTY
Coulomb
SciTegic.value.DoubleValue
-7.801

@<SCITEGIC>MOL_PROPERTY
VdW
SciTegic.value.DoubleValue
2.317

@<SCITEGIC>MOL_PROPERTY
VdW6
SciTegic.value.DoubleValue
-9.658

@<SCITEGIC>MOL_PROPERTY
VdW12
SciTegic.value.DoubleValue
11.975

@<SCITEGIC>MOL_PROPERTY
Bond
SciTegic.value.DoubleValue
0.267

@<SCITEGIC>MOL_PROPERTY
Angle
SciTegic.value.DoubleValue
3.051

@<SCITEGIC>MOL_PROPERTY
Pdih
SciTegic.value.DoubleValue
8.764

@<SCITEGIC>MOL_PROPERTY
Idih
SciTegic.value.DoubleValue
0.000

@<SCITEGIC>MOL_PROPERTY
Tether
SciTegic.value.DoubleValue
0.000

@<TRIPOS>MOLECULE
guest-5_confgen4.mol2 : confsearch ligand conformer 118
          22          22           1
SMALL
USER_CHARGES
 
@<TRIPOS>ATOM
       1    C1      19.557229   20.354283   21.362004 C.3        1 MOL1        -0.1685
       2    H1      19.214709   21.098796   20.630615 H          1 MOL1         0.0832
       3    H2      19.923454   19.497056   20.780439 H          1 MOL1         0.0832
       4    C2      18.344138   19.948463   22.228668 C.3        1 MOL1        -0.1685
       5    H3      18.032936   20.800979   22.847498 H          1 MOL1         0.0832
       6    H4      17.495734   19.732327   21.565301 H          1 MOL1         0.0832
       7    C3      18.579475   18.716405   23.129707 C.3        1 MOL1        -0.1685
       8    H5      18.681107   17.819939   22.503681 H          1 MOL1         0.0832
       9    H6      17.672197   18.556176   23.727451 H          1 MOL1         0.0832
      10    C4      19.788545   18.828074   24.097626 C.3        1 MOL1        -0.1761
      11    H7      19.728338   19.762853   24.669309 H          1 MOL1         0.0832
      12    H8      19.697432   18.022174   24.837090 H          1 MOL1         0.0832
      13    C5      21.191124   18.696868   23.449871 C.3        1 MOL1         0.1218
      14    H9      21.895524   18.476437   24.265045 H          1 MOL1         0.0789
      15    C6      21.732324   19.967499   22.744364 C.3        1 MOL1        -0.1761
      16    H10     22.372385   20.503865   23.456892 H          1 MOL1         0.0832
      17    H11     22.400799   19.665754   21.927319 H          1 MOL1         0.0832
      18    C7      20.700030   20.980959   22.191041 C.3        1 MOL1        -0.1685
      19    H12     20.279915   21.573105   23.015227 H          1 MOL1         0.0832
      20    H13     21.240012   21.698613   21.558529 H          1 MOL1         0.0832
      21    O1      21.221183   17.596280   22.545038 O.3        1 MOL1        -0.5509
      22    H14     22.135299   17.538726   22.200091 H          1 MOL1         0.3779
@<TRIPOS>BOND
    1     1     2    1
    2     1     3    1
    3     1     4    1
    4     4     5    1
    5     4     6    1
    6     4     7    1
    7     7     8    1
    8     7     9    1
    9     7    10    1
   10    10    11    1
   11    10    12    1
   12    10    13    1
   13    13    14    1
   14    13    15    1
   15    15    16    1
   16    15    17    1
   17     1    18    1
   18    15    18    1
   19    18    19    1
   20    18    20    1
   21    13    21    1
   22    21    22    1
@<TRIPOS>SUBSTRUCTURE
       1 MOL1            1 RESIDUE      1      MOL     
@<SCITEGIC>MOL_PROPERTY
VConf Rank
SciTegic.value.IntegerValue
118

@<SCITEGIC>MOL_PROPERTY
Conf_Id
SciTegic.value.IntegerValue
104

@<SCITEGIC>MOL_PROPERTY
Delta U+W
SciTegic.value.DoubleValue
-1.172

@<SCITEGIC>MOL_PROPERTY
U+W
SciTegic.value.DoubleValue
5.252

@<SCITEGIC>MOL_PROPERTY
Grad RMS
SciTegic.value.DoubleValue
0.000000

@<SCITEGIC>MOL_PROPERTY
U
SciTegic.value.DoubleValue
7.482

@<SCITEGIC>MOL_PROPERTY
W
SciTegic.value.DoubleValue
-2.230

@<SCITEGIC>MOL_PROPERTY
W(PB)
SciTegic.value.DoubleValue
-4.220

@<SCITEGIC>MOL_PROPERTY
W(SA)
SciTegic.value.DoubleValue
1.990

@<SCITEGIC>MOL_PROPERTY
Valence
SciTegic.value.DoubleValue
12.309

@<SCITEGIC>MOL_PROPERTY
Coulomb
SciTegic.value.DoubleValue
-7.084

@<SCITEGIC>MOL_PROPERTY
VdW
SciTegic.value.DoubleValue
2.258

@<SCITEGIC>MOL_PROPERTY
VdW6
SciTegic.value.DoubleValue
-9.770

@<SCITEGIC>MOL_PROPERTY
VdW12
SciTegic.value.DoubleValue
12.028

@<SCITEGIC>MOL_PROPERTY
Bond
SciTegic.value.DoubleValue
0.284

@<SCITEGIC>MOL_PROPERTY
Angle
SciTegic.value.DoubleValue
3.491

@<SCITEGIC>MOL_PROPERTY
Pdih
SciTegic.value.DoubleValue
8.535

@<SCITEGIC>MOL_PROPERTY
Idih
SciTegic.value.DoubleValue
0.000

@<SCITEGIC>MOL_PROPERTY
Tether
SciTegic.value.DoubleValue
0.000

@<TRIPOS>MOLECULE
guest-5_confgen4.mol2 : confsearch ligand conformer 119
          22          22           1
SMALL
USER_CHARGES
 
@<TRIPOS>ATOM
       1    C1      20.576204   18.996930   24.116167 C.3        1 MOL1        -0.1685
       2    H1      19.649154   19.280889   24.632337 H          1 MOL1         0.0832
       3    H2      21.222493   18.546364   24.881830 H          1 MOL1         0.0832
       4    C2      21.301679   20.242878   23.558689 C.3        1 MOL1        -0.1685
       5    H3      21.844227   20.729501   24.380935 H          1 MOL1         0.0832
       6    H4      22.080751   19.924885   22.853519 H          1 MOL1         0.0832
       7    C3      20.392514   21.309289   22.896978 C.3        1 MOL1        -0.1685
       8    H5      20.993178   21.878020   22.173747 H          1 MOL1         0.0832
       9    H6      20.095278   22.036956   23.664494 H          1 MOL1         0.0832
      10    C4      19.097829   20.808012   22.201481 C.3        1 MOL1        -0.1761
      11    H7      18.333494   20.611858   22.964548 H          1 MOL1         0.0832
      12    H8      18.696620   21.632366   21.597765 H          1 MOL1         0.0832
      13    C5      19.222900   19.563612   21.292742 C.3        1 MOL1         0.1218
      14    H9      18.372080   19.580302   20.596533 H          1 MOL1         0.0789
      15    C6      19.131786   18.235547   22.077733 C.3        1 MOL1        -0.1761
      16    H10     18.192627   18.226791   22.646034 H          1 MOL1         0.0832
      17    H11     19.046385   17.415094   21.353297 H          1 MOL1         0.0832
      18    C7      20.303526   17.919275   23.039911 C.3        1 MOL1        -0.1685
      19    H12     20.074357   16.973404   23.549344 H          1 MOL1         0.0832
      20    H13     21.218493   17.729200   22.462689 H          1 MOL1         0.0832
      21    O1      20.429816   19.609691   20.547491 O.3        1 MOL1        -0.5509
      22    H14     21.128316   19.676656   21.228593 H          1 MOL1         0.3779
@<TRIPOS>BOND
    1     1     2    1
    2     1     3    1
    3     1     4    1
    4     4     5    1
    5     4     6    1
    6     4     7    1
    7     7     8    1
    8     7     9    1
    9     7    10    1
   10    10    11    1
   11    10    12    1
   12    10    13    1
   13    13    14    1
   14    13    15    1
   15    15    16    1
   16    15    17    1
   17     1    18    1
   18    15    18    1
   19    18    19    1
   20    18    20    1
   21    13    21    1
   22    21    22    1
@<TRIPOS>SUBSTRUCTURE
       1 MOL1            1 RESIDUE      1      MOL     
@<SCITEGIC>MOL_PROPERTY
VConf Rank
SciTegic.value.IntegerValue
119

@<SCITEGIC>MOL_PROPERTY
Conf_Id
SciTegic.value.IntegerValue
99

@<SCITEGIC>MOL_PROPERTY
Delta U+W
SciTegic.value.DoubleValue
-3.852

@<SCITEGIC>MOL_PROPERTY
U+W
SciTegic.value.DoubleValue
2.572

@<SCITEGIC>MOL_PROPERTY
Grad RMS
SciTegic.value.DoubleValue
0.000000

@<SCITEGIC>MOL_PROPERTY
U
SciTegic.value.DoubleValue
3.922

@<SCITEGIC>MOL_PROPERTY
W
SciTegic.value.DoubleValue
-1.350

@<SCITEGIC>MOL_PROPERTY
W(PB)
SciTegic.value.DoubleValue
-3.345

@<SCITEGIC>MOL_PROPERTY
W(SA)
SciTegic.value.DoubleValue
1.995

@<SCITEGIC>MOL_PROPERTY
Valence
SciTegic.value.DoubleValue
12.571

@<SCITEGIC>MOL_PROPERTY
Coulomb
SciTegic.value.DoubleValue
-10.581

@<SCITEGIC>MOL_PROPERTY
VdW
SciTegic.value.DoubleValue
1.932

@<SCITEGIC>MOL_PROPERTY
VdW6
SciTegic.value.DoubleValue
-10.483

@<SCITEGIC>MOL_PROPERTY
VdW12
SciTegic.value.DoubleValue
12.415

@<SCITEGIC>MOL_PROPERTY
Bond
SciTegic.value.DoubleValue
0.268

@<SCITEGIC>MOL_PROPERTY
Angle
SciTegic.value.DoubleValue
3.728

@<SCITEGIC>MOL_PROPERTY
Pdih
SciTegic.value.DoubleValue
8.575

@<SCITEGIC>MOL_PROPERTY
Idih
SciTegic.value.DoubleValue
0.000

@<SCITEGIC>MOL_PROPERTY
Tether
SciTegic.value.DoubleValue
0.000

@<TRIPOS>MOLECULE
guest-5_confgen4.mol2 : confsearch ligand conformer 120
          22          22           1
SMALL
USER_CHARGES
 
@<TRIPOS>ATOM
       1    C1      19.597816   19.530565   21.080665 C.3        1 MOL1        -0.1685
       2    H1      18.941675   19.834380   20.253340 H          1 MOL1         0.0832
       3    H2      20.323729   18.841939   20.628007 H          1 MOL1         0.0832
       4    C2      18.726810   18.778570   22.129333 C.3        1 MOL1        -0.1685
       5    H3      17.693704   18.756756   21.755826 H          1 MOL1         0.0832
       6    H4      19.029416   17.724431   22.186552 H          1 MOL1         0.0832
       7    C3      18.701085   19.389154   23.553859 C.3        1 MOL1        -0.1685
       8    H5      17.911916   18.888487   24.131156 H          1 MOL1         0.0832
       9    H6      18.381576   20.437376   23.501748 H          1 MOL1         0.0832
      10    C4      20.022690   19.283295   24.364404 C.3        1 MOL1        -0.1761
      11    H7      20.011432   20.058395   25.141473 H          1 MOL1         0.0832
      12    H8      20.021158   18.328547   24.907036 H          1 MOL1         0.0832
      13    C5      21.363085   19.380255   23.594924 C.3        1 MOL1         0.1218
      14    H9      22.154177   19.512537   24.346888 H          1 MOL1         0.0789
      15    C6      21.494432   20.553424   22.592644 C.3        1 MOL1        -0.1761
      16    H10     21.657360   21.478616   23.160283 H          1 MOL1         0.0832
      17    H11     22.418703   20.397655   22.020405 H          1 MOL1         0.0832
      18    C7      20.332001   20.796965   21.590525 C.3        1 MOL1        -0.1685
      19    H12     19.606832   21.494906   22.027077 H          1 MOL1         0.0832
      20    H13     20.742527   21.332080   20.723435 H          1 MOL1         0.0832
      21    O1      21.619410   18.153984   22.928741 O.3        1 MOL1        -0.5509
      22    H14     20.894338   18.083586   22.275865 H          1 MOL1         0.3779
@<TRIPOS>BOND
    1     1     2    1
    2     1     3    1
    3     1     4    1
    4     4     5    1
    5     4     6    1
    6     4     7    1
    7     7     8    1
    8     7     9    1
    9     7    10    1
   10    10    11    1
   11    10    12    1
   12    10    13    1
   13    13    14    1
   14    13    15    1
   15    15    16    1
   16    15    17    1
   17     1    18    1
   18    15    18    1
   19    18    19    1
   20    18    20    1
   21    13    21    1
   22    21    22    1
@<TRIPOS>SUBSTRUCTURE
       1 MOL1            1 RESIDUE      1      MOL     
@<SCITEGIC>MOL_PROPERTY
VConf Rank
SciTegic.value.IntegerValue
120

@<SCITEGIC>MOL_PROPERTY
Conf_Id
SciTegic.value.IntegerValue
98

@<SCITEGIC>MOL_PROPERTY
Delta U+W
SciTegic.value.DoubleValue
0.930

@<SCITEGIC>MOL_PROPERTY
U+W
SciTegic.value.DoubleValue
7.353

@<SCITEGIC>MOL_PROPERTY
Grad RMS
SciTegic.value.DoubleValue
0.000000

@<SCITEGIC>MOL_PROPERTY
U
SciTegic.value.DoubleValue
8.455

@<SCITEGIC>MOL_PROPERTY
W
SciTegic.value.DoubleValue
-1.102

@<SCITEGIC>MOL_PROPERTY
W(PB)
SciTegic.value.DoubleValue
-3.101

@<SCITEGIC>MOL_PROPERTY
W(SA)
SciTegic.value.DoubleValue
2.000

@<SCITEGIC>MOL_PROPERTY
Valence
SciTegic.value.DoubleValue
15.601

@<SCITEGIC>MOL_PROPERTY
Coulomb
SciTegic.value.DoubleValue
-10.573

@<SCITEGIC>MOL_PROPERTY
VdW
SciTegic.value.DoubleValue
3.427

@<SCITEGIC>MOL_PROPERTY
VdW6
SciTegic.value.DoubleValue
-11.360

@<SCITEGIC>MOL_PROPERTY
VdW12
SciTegic.value.DoubleValue
14.787

@<SCITEGIC>MOL_PROPERTY
Bond
SciTegic.value.DoubleValue
0.471

@<SCITEGIC>MOL_PROPERTY
Angle
SciTegic.value.DoubleValue
5.445

@<SCITEGIC>MOL_PROPERTY
Pdih
SciTegic.value.DoubleValue
9.685

@<SCITEGIC>MOL_PROPERTY
Idih
SciTegic.value.DoubleValue
0.000

@<SCITEGIC>MOL_PROPERTY
Tether
SciTegic.value.DoubleValue
0.000

@<TRIPOS>MOLECULE
guest-5_confgen4.mol2 : confsearch ligand conformer 121
          22          22           1
SMALL
USER_CHARGES
 
@<TRIPOS>ATOM
       1    C1      20.611487   21.146106   22.646165 C.3        1 MOL1        -0.1685
       2    H1      20.565934   21.101669   21.550386 H          1 MOL1         0.0832
       3    H2      20.937245   22.169551   22.876720 H          1 MOL1         0.0832
       4    C2      21.685815   20.157499   23.166391 C.3        1 MOL1        -0.1685
       5    H3      22.646219   20.447165   22.718516 H          1 MOL1         0.0832
       6    H4      21.811559   20.287812   24.249826 H          1 MOL1         0.0832
       7    C3      21.442358   18.654121   22.857805 C.3        1 MOL1        -0.1685
       8    H5      21.081067   18.138984   23.757314 H          1 MOL1         0.0832
       9    H6      22.412249   18.188632   22.635842 H          1 MOL1         0.0832
      10    C4      20.474823   18.373891   21.677526 C.3        1 MOL1        -0.1761
      11    H7      20.805001   18.941844   20.798869 H          1 MOL1         0.0832
      12    H8      20.580696   17.319800   21.387578 H          1 MOL1         0.0832
      13    C5      18.970817   18.674404   21.944974 C.3        1 MOL1         0.1218
      14    H9      18.577278   19.229039   21.080928 H          1 MOL1         0.0789
      15    C6      18.660648   19.490468   23.224853 C.3        1 MOL1        -0.1761
      16    H10     17.572752   19.530281   23.366117 H          1 MOL1         0.0832
      17    H11     19.042991   18.957849   24.103898 H          1 MOL1         0.0832
      18    C7      19.193441   20.945084   23.230439 C.3        1 MOL1        -0.1685
      19    H12     18.497933   21.580525   22.665375 H          1 MOL1         0.0832
      20    H13     19.172662   21.319582   24.262908 H          1 MOL1         0.0832
      21    O1      18.275689   17.437041   22.049417 O.3        1 MOL1        -0.5509
      22    H14     17.326587   17.654453   22.159488 H          1 MOL1         0.3779
@<TRIPOS>BOND
    1     1     2    1
    2     1     3    1
    3     1     4    1
    4     4     5    1
    5     4     6    1
    6     4     7    1
    7     7     8    1
    8     7     9    1
    9     7    10    1
   10    10    11    1
   11    10    12    1
   12    10    13    1
   13    13    14    1
   14    13    15    1
   15    15    16    1
   16    15    17    1
   17     1    18    1
   18    15    18    1
   19    18    19    1
   20    18    20    1
   21    13    21    1
   22    21    22    1
@<TRIPOS>SUBSTRUCTURE
       1 MOL1            1 RESIDUE      1      MOL     
@<SCITEGIC>MOL_PROPERTY
VConf Rank
SciTegic.value.IntegerValue
121

@<SCITEGIC>MOL_PROPERTY
Conf_Id
SciTegic.value.IntegerValue
141

@<SCITEGIC>MOL_PROPERTY
Delta U+W
SciTegic.value.DoubleValue
0.000

@<SCITEGIC>MOL_PROPERTY
U+W
SciTegic.value.DoubleValue
6.423

@<SCITEGIC>MOL_PROPERTY
Grad RMS
SciTegic.value.DoubleValue
0.000000

@<SCITEGIC>MOL_PROPERTY
U
SciTegic.value.DoubleValue
8.781

@<SCITEGIC>MOL_PROPERTY
W
SciTegic.value.DoubleValue
-2.358

@<SCITEGIC>MOL_PROPERTY
W(PB)
SciTegic.value.DoubleValue
-4.373

@<SCITEGIC>MOL_PROPERTY
W(SA)
SciTegic.value.DoubleValue
2.015

@<SCITEGIC>MOL_PROPERTY
Valence
SciTegic.value.DoubleValue
13.328

@<SCITEGIC>MOL_PROPERTY
Coulomb
SciTegic.value.DoubleValue
-8.387

@<SCITEGIC>MOL_PROPERTY
VdW
SciTegic.value.DoubleValue
3.840

@<SCITEGIC>MOL_PROPERTY
VdW6
SciTegic.value.DoubleValue
-9.744

@<SCITEGIC>MOL_PROPERTY
VdW12
SciTegic.value.DoubleValue
13.584

@<SCITEGIC>MOL_PROPERTY
Bond
SciTegic.value.DoubleValue
0.436

@<SCITEGIC>MOL_PROPERTY
Angle
SciTegic.value.DoubleValue
3.478

@<SCITEGIC>MOL_PROPERTY
Pdih
SciTegic.value.DoubleValue
9.415

@<SCITEGIC>MOL_PROPERTY
Idih
SciTegic.value.DoubleValue
0.000

@<SCITEGIC>MOL_PROPERTY
Tether
SciTegic.value.DoubleValue
0.000

@<TRIPOS>MOLECULE
guest-5_confgen4.mol2 : confsearch ligand conformer 122
          22          22           1
SMALL
USER_CHARGES
 
@<TRIPOS>ATOM
       1    C1      18.268979   19.949492   22.687839 C.3        1 MOL1        -0.1685
       2    H1      18.443418   20.772592   21.981662 H          1 MOL1         0.0832
       3    H2      17.182365   19.908901   22.844448 H          1 MOL1         0.0832
       4    C2      18.929904   20.244483   24.055981 C.3        1 MOL1        -0.1685
       5    H3      18.392513   21.075937   24.532165 H          1 MOL1         0.0832
       6    H4      18.792320   19.380675   24.720651 H          1 MOL1         0.0832
       7    C3      20.430806   20.610869   23.997818 C.3        1 MOL1        -0.1685
       8    H5      20.794627   20.728824   25.027647 H          1 MOL1         0.0832
       9    H6      20.548015   21.595167   23.524131 H          1 MOL1         0.0832
      10    C4      21.328287   19.579080   23.271788 C.3        1 MOL1        -0.1761
      11    H7      22.372864   19.830401   23.498025 H          1 MOL1         0.0832
      12    H8      21.162707   18.571110   23.673753 H          1 MOL1         0.0832
      13    C5      21.130229   19.589967   21.739377 C.3        1 MOL1         0.1218
      14    H9      20.891241   20.617753   21.430535 H          1 MOL1         0.0789
      15    C6      20.007551   18.657243   21.230538 C.3        1 MOL1        -0.1761
      16    H10     19.745081   18.978644   20.214338 H          1 MOL1         0.0832
      17    H11     20.400361   17.636501   21.131068 H          1 MOL1         0.0832
      18    C7      18.715222   18.597872   22.082831 C.3        1 MOL1        -0.1685
      19    H12     17.907951   18.207064   21.448476 H          1 MOL1         0.0832
      20    H13     18.839485   17.860752   22.887767 H          1 MOL1         0.0832
      21    O1      22.346914   19.195385   21.117121 O.3        1 MOL1        -0.5509
      22    H14     23.028217   19.843797   21.392814 H          1 MOL1         0.3779
@<TRIPOS>BOND
    1     1     2    1
    2     1     3    1
    3     1     4    1
    4     4     5    1
    5     4     6    1
    6     4     7    1
    7     7     8    1
    8     7     9    1
    9     7    10    1
   10    10    11    1
   11    10    12    1
   12    10    13    1
   13    13    14    1
   14    13    15    1
   15    15    16    1
   16    15    17    1
   17     1    18    1
   18    15    18    1
   19    18    19    1
   20    18    20    1
   21    13    21    1
   22    21    22    1
@<TRIPOS>SUBSTRUCTURE
       1 MOL1            1 RESIDUE      1      MOL     
@<SCITEGIC>MOL_PROPERTY
VConf Rank
SciTegic.value.IntegerValue
122

@<SCITEGIC>MOL_PROPERTY
Conf_Id
SciTegic.value.IntegerValue
144

@<SCITEGIC>MOL_PROPERTY
Delta U+W
SciTegic.value.DoubleValue
-3.291

@<SCITEGIC>MOL_PROPERTY
U+W
SciTegic.value.DoubleValue
3.132

@<SCITEGIC>MOL_PROPERTY
Grad RMS
SciTegic.value.DoubleValue
0.000000

@<SCITEGIC>MOL_PROPERTY
U
SciTegic.value.DoubleValue
5.411

@<SCITEGIC>MOL_PROPERTY
W
SciTegic.value.DoubleValue
-2.279

@<SCITEGIC>MOL_PROPERTY
W(PB)
SciTegic.value.DoubleValue
-4.300

@<SCITEGIC>MOL_PROPERTY
W(SA)
SciTegic.value.DoubleValue
2.021

@<SCITEGIC>MOL_PROPERTY
Valence
SciTegic.value.DoubleValue
11.909

@<SCITEGIC>MOL_PROPERTY
Coulomb
SciTegic.value.DoubleValue
-8.733

@<SCITEGIC>MOL_PROPERTY
VdW
SciTegic.value.DoubleValue
2.236

@<SCITEGIC>MOL_PROPERTY
VdW6
SciTegic.value.DoubleValue
-8.936

@<SCITEGIC>MOL_PROPERTY
VdW12
SciTegic.value.DoubleValue
11.172

@<SCITEGIC>MOL_PROPERTY
Bond
SciTegic.value.DoubleValue
0.223

@<SCITEGIC>MOL_PROPERTY
Angle
SciTegic.value.DoubleValue
2.457

@<SCITEGIC>MOL_PROPERTY
Pdih
SciTegic.value.DoubleValue
9.228

@<SCITEGIC>MOL_PROPERTY
Idih
SciTegic.value.DoubleValue
0.000

@<SCITEGIC>MOL_PROPERTY
Tether
SciTegic.value.DoubleValue
0.000

@<TRIPOS>MOLECULE
guest-5_confgen4.mol2 : confsearch ligand conformer 123
          22          22           1
SMALL
USER_CHARGES
 
@<TRIPOS>ATOM
       1    C1      18.594993   19.861418   23.701860 C.3        1 MOL1        -0.1685
       2    H1      17.691591   20.273578   24.171836 H          1 MOL1         0.0832
       3    H2      18.901493   19.011220   24.326283 H          1 MOL1         0.0832
       4    C2      19.679510   20.964095   23.701401 C.3        1 MOL1        -0.1685
       5    H3      19.519584   21.633798   22.845425 H          1 MOL1         0.0832
       6    H4      19.548011   21.592230   24.593115 H          1 MOL1         0.0832
       7    C3      21.139176   20.449104   23.692273 C.3        1 MOL1        -0.1685
       8    H5      21.441889   20.214632   24.721983 H          1 MOL1         0.0832
       9    H6      21.790789   21.272950   23.370254 H          1 MOL1         0.0832
      10    C4      21.423843   19.207557   22.811553 C.3        1 MOL1        -0.1761
      11    H7      22.507175   19.161438   22.636240 H          1 MOL1         0.0832
      12    H8      21.174915   18.300034   23.376646 H          1 MOL1         0.0832
      13    C5      20.680954   19.185647   21.456847 C.3        1 MOL1         0.1218
      14    H9      20.584745   20.211259   21.073008 H          1 MOL1         0.0789
      15    C6      19.281859   18.536700   21.558726 C.3        1 MOL1        -0.1761
      16    H10     18.919022   18.322167   20.544598 H          1 MOL1         0.0832
      17    H11     19.364510   17.565173   22.063096 H          1 MOL1         0.0832
      18    C7      18.211814   19.392038   22.277835 C.3        1 MOL1        -0.1685
      19    H12     17.968290   20.266296   21.658728 H          1 MOL1         0.0832
      20    H13     17.286783   18.802803   22.340353 H          1 MOL1         0.0832
      21    O1      21.450290   18.421760   20.537711 O.3        1 MOL1        -0.5509
      22    H14     21.514839   17.519730   20.913656 H          1 MOL1         0.3779
@<TRIPOS>BOND
    1     1     2    1
    2     1     3    1
    3     1     4    1
    4     4     5    1
    5     4     6    1
    6     4     7    1
    7     7     8    1
    8     7     9    1
    9     7    10    1
   10    10    11    1
   11    10    12    1
   12    10    13    1
   13    13    14    1
   14    13    15    1
   15    15    16    1
   16    15    17    1
   17     1    18    1
   18    15    18    1
   19    18    19    1
   20    18    20    1
   21    13    21    1
   22    21    22    1
@<TRIPOS>SUBSTRUCTURE
       1 MOL1            1 RESIDUE      1      MOL     
@<SCITEGIC>MOL_PROPERTY
VConf Rank
SciTegic.value.IntegerValue
123

@<SCITEGIC>MOL_PROPERTY
Conf_Id
SciTegic.value.IntegerValue
76

@<SCITEGIC>MOL_PROPERTY
Delta U+W
SciTegic.value.DoubleValue
-3.175

@<SCITEGIC>MOL_PROPERTY
U+W
SciTegic.value.DoubleValue
3.248

@<SCITEGIC>MOL_PROPERTY
Grad RMS
SciTegic.value.DoubleValue
0.000000

@<SCITEGIC>MOL_PROPERTY
U
SciTegic.value.DoubleValue
5.336

@<SCITEGIC>MOL_PROPERTY
W
SciTegic.value.DoubleValue
-2.088

@<SCITEGIC>MOL_PROPERTY
W(PB)
SciTegic.value.DoubleValue
-4.098

@<SCITEGIC>MOL_PROPERTY
W(SA)
SciTegic.value.DoubleValue
2.010

@<SCITEGIC>MOL_PROPERTY
Valence
SciTegic.value.DoubleValue
12.390

@<SCITEGIC>MOL_PROPERTY
Coulomb
SciTegic.value.DoubleValue
-9.270

@<SCITEGIC>MOL_PROPERTY
VdW
SciTegic.value.DoubleValue
2.216

@<SCITEGIC>MOL_PROPERTY
VdW6
SciTegic.value.DoubleValue
-8.967

@<SCITEGIC>MOL_PROPERTY
VdW12
SciTegic.value.DoubleValue
11.183

@<SCITEGIC>MOL_PROPERTY
Bond
SciTegic.value.DoubleValue
0.218

@<SCITEGIC>MOL_PROPERTY
Angle
SciTegic.value.DoubleValue
2.426

@<SCITEGIC>MOL_PROPERTY
Pdih
SciTegic.value.DoubleValue
9.745

@<SCITEGIC>MOL_PROPERTY
Idih
SciTegic.value.DoubleValue
0.000

@<SCITEGIC>MOL_PROPERTY
Tether
SciTegic.value.DoubleValue
0.000

@<TRIPOS>MOLECULE
guest-5_confgen4.mol2 : confsearch ligand conformer 124
          22          22           1
SMALL
USER_CHARGES
 
@<TRIPOS>ATOM
       1    C1      19.180255   20.770541   21.566714 C.3        1 MOL1        -0.1685
       2    H1      19.633288   21.553181   20.943002 H          1 MOL1         0.0832
       3    H2      18.106345   20.790041   21.336168 H          1 MOL1         0.0832
       4    C2      19.381512   21.157880   23.051348 C.3        1 MOL1        -0.1685
       5    H3      20.361066   21.639166   23.175111 H          1 MOL1         0.0832
       6    H4      18.641383   21.929293   23.304163 H          1 MOL1         0.0832
       7    C3      19.251944   19.989213   24.055824 C.3        1 MOL1        -0.1685
       8    H5      18.462399   19.290537   23.747104 H          1 MOL1         0.0832
       9    H6      18.931820   20.403335   25.021389 H          1 MOL1         0.0832
      10    C4      20.590772   19.242307   24.283314 C.3        1 MOL1        -0.1761
      11    H7      21.375521   19.972302   24.519509 H          1 MOL1         0.0832
      12    H8      20.493617   18.614046   25.178447 H          1 MOL1         0.0832
      13    C5      21.078375   18.345496   23.122680 C.3        1 MOL1         0.1218
      14    H9      22.107120   18.043139   23.366322 H          1 MOL1         0.0789
      15    C6      21.121530   19.030525   21.733666 C.3        1 MOL1        -0.1761
      16    H10     21.756842   19.924490   21.779307 H          1 MOL1         0.0832
      17    H11     21.626069   18.344077   21.041554 H          1 MOL1         0.0832
      18    C7      19.737847   19.393395   21.134530 C.3        1 MOL1        -0.1685
      19    H12     19.815079   19.389845   20.038882 H          1 MOL1         0.0832
      20    H13     19.005735   18.611861   21.376723 H          1 MOL1         0.0832
      21    O1      20.273146   17.172327   23.065223 O.3        1 MOL1        -0.5509
      22    H14     20.580554   16.660812   22.289248 H          1 MOL1         0.3779
@<TRIPOS>BOND
    1     1     2    1
    2     1     3    1
    3     1     4    1
    4     4     5    1
    5     4     6    1
    6     4     7    1
    7     7     8    1
    8     7     9    1
    9     7    10    1
   10    10    11    1
   11    10    12    1
   12    10    13    1
   13    13    14    1
   14    13    15    1
   15    15    16    1
   16    15    17    1
   17     1    18    1
   18    15    18    1
   19    18    19    1
   20    18    20    1
   21    13    21    1
   22    21    22    1
@<TRIPOS>SUBSTRUCTURE
       1 MOL1            1 RESIDUE      1      MOL     
@<SCITEGIC>MOL_PROPERTY
VConf Rank
SciTegic.value.IntegerValue
124

@<SCITEGIC>MOL_PROPERTY
Conf_Id
SciTegic.value.IntegerValue
95

@<SCITEGIC>MOL_PROPERTY
Delta U+W
SciTegic.value.DoubleValue
-2.289

@<SCITEGIC>MOL_PROPERTY
U+W
SciTegic.value.DoubleValue
4.134

@<SCITEGIC>MOL_PROPERTY
Grad RMS
SciTegic.value.DoubleValue
0.000000

@<SCITEGIC>MOL_PROPERTY
U
SciTegic.value.DoubleValue
6.373

@<SCITEGIC>MOL_PROPERTY
W
SciTegic.value.DoubleValue
-2.240

@<SCITEGIC>MOL_PROPERTY
W(PB)
SciTegic.value.DoubleValue
-4.254

@<SCITEGIC>MOL_PROPERTY
W(SA)
SciTegic.value.DoubleValue
2.015

@<SCITEGIC>MOL_PROPERTY
Valence
SciTegic.value.DoubleValue
12.093

@<SCITEGIC>MOL_PROPERTY
Coulomb
SciTegic.value.DoubleValue
-8.058

@<SCITEGIC>MOL_PROPERTY
VdW
SciTegic.value.DoubleValue
2.339

@<SCITEGIC>MOL_PROPERTY
VdW6
SciTegic.value.DoubleValue
-9.683

@<SCITEGIC>MOL_PROPERTY
VdW12
SciTegic.value.DoubleValue
12.022

@<SCITEGIC>MOL_PROPERTY
Bond
SciTegic.value.DoubleValue
0.268

@<SCITEGIC>MOL_PROPERTY
Angle
SciTegic.value.DoubleValue
3.005

@<SCITEGIC>MOL_PROPERTY
Pdih
SciTegic.value.DoubleValue
8.820

@<SCITEGIC>MOL_PROPERTY
Idih
SciTegic.value.DoubleValue
0.000

@<SCITEGIC>MOL_PROPERTY
Tether
SciTegic.value.DoubleValue
0.000

@<TRIPOS>MOLECULE
guest-5_confgen4.mol2 : confsearch ligand conformer 125
          22          22           1
SMALL
USER_CHARGES
 
@<TRIPOS>ATOM
       1    C1      19.755827   20.893668   21.303520 C.3        1 MOL1        -0.1685
       2    H1      20.509232   21.453277   20.732579 H          1 MOL1         0.0832
       3    H2      18.785142   21.179125   20.875650 H          1 MOL1         0.0832
       4    C2      19.813396   21.367751   22.775342 C.3        1 MOL1        -0.1685
       5    H3      20.855048   21.581829   23.050317 H          1 MOL1         0.0832
       6    H4      19.288583   22.330490   22.842453 H          1 MOL1         0.0832
       7    C3      19.200222   20.388899   23.803633 C.3        1 MOL1        -0.1685
       8    H5      18.305198   19.899733   23.395629 H          1 MOL1         0.0832
       9    H6      18.860423   20.973493   24.669203 H          1 MOL1         0.0832
      10    C4      20.221355   19.340610   24.313228 C.3        1 MOL1        -0.1761
      11    H7      21.135862   19.856457   24.633348 H          1 MOL1         0.0832
      12    H8      19.819342   18.871230   25.220449 H          1 MOL1         0.0832
      13    C5      20.606799   18.223431   23.316695 C.3        1 MOL1         0.1218
      14    H9      21.453358   17.679997   23.760676 H          1 MOL1         0.0789
      15    C6      21.065123   18.716169   21.921173 C.3        1 MOL1        -0.1761
      16    H10     21.920067   19.396264   22.026191 H          1 MOL1         0.0832
      17    H11     21.443051   17.841362   21.376459 H          1 MOL1         0.0832
      18    C7      19.958886   19.379171   21.059716 C.3        1 MOL1        -0.1685
      19    H12     20.206373   19.238500   19.998971 H          1 MOL1         0.0832
      20    H13     19.006063   18.853759   21.206991 H          1 MOL1         0.0832
      21    O1      19.518177   17.314824   23.181681 O.3        1 MOL1        -0.5509
      22    H14     19.258811   17.049777   24.087587 H          1 MOL1         0.3779
@<TRIPOS>BOND
    1     1     2    1
    2     1     3    1
    3     1     4    1
    4     4     5    1
    5     4     6    1
    6     4     7    1
    7     7     8    1
    8     7     9    1
    9     7    10    1
   10    10    11    1
   11    10    12    1
   12    10    13    1
   13    13    14    1
   14    13    15    1
   15    15    16    1
   16    15    17    1
   17     1    18    1
   18    15    18    1
   19    18    19    1
   20    18    20    1
   21    13    21    1
   22    21    22    1
@<TRIPOS>SUBSTRUCTURE
       1 MOL1            1 RESIDUE      1      MOL     
@<SCITEGIC>MOL_PROPERTY
VConf Rank
SciTegic.value.IntegerValue
125

@<SCITEGIC>MOL_PROPERTY
Conf_Id
SciTegic.value.IntegerValue
41

@<SCITEGIC>MOL_PROPERTY
Delta U+W
SciTegic.value.DoubleValue
-2.114

@<SCITEGIC>MOL_PROPERTY
U+W
SciTegic.value.DoubleValue
4.310

@<SCITEGIC>MOL_PROPERTY
Grad RMS
SciTegic.value.DoubleValue
0.000000

@<SCITEGIC>MOL_PROPERTY
U
SciTegic.value.DoubleValue
6.598

@<SCITEGIC>MOL_PROPERTY
W
SciTegic.value.DoubleValue
-2.289

@<SCITEGIC>MOL_PROPERTY
W(PB)
SciTegic.value.DoubleValue
-4.294

@<SCITEGIC>MOL_PROPERTY
W(SA)
SciTegic.value.DoubleValue
2.005

@<SCITEGIC>MOL_PROPERTY
Valence
SciTegic.value.DoubleValue
12.082

@<SCITEGIC>MOL_PROPERTY
Coulomb
SciTegic.value.DoubleValue
-7.801

@<SCITEGIC>MOL_PROPERTY
VdW
SciTegic.value.DoubleValue
2.317

@<SCITEGIC>MOL_PROPERTY
VdW6
SciTegic.value.DoubleValue
-9.658

@<SCITEGIC>MOL_PROPERTY
VdW12
SciTegic.value.DoubleValue
11.975

@<SCITEGIC>MOL_PROPERTY
Bond
SciTegic.value.DoubleValue
0.267

@<SCITEGIC>MOL_PROPERTY
Angle
SciTegic.value.DoubleValue
3.051

@<SCITEGIC>MOL_PROPERTY
Pdih
SciTegic.value.DoubleValue
8.764

@<SCITEGIC>MOL_PROPERTY
Idih
SciTegic.value.DoubleValue
0.000

@<SCITEGIC>MOL_PROPERTY
Tether
SciTegic.value.DoubleValue
0.000

@<TRIPOS>MOLECULE
guest-5_confgen4.mol2 : confsearch ligand conformer 126
          22          22           1
SMALL
USER_CHARGES
 
@<TRIPOS>ATOM
       1    C1      20.057499   20.969902   21.863475 C.3        1 MOL1        -0.1685
       2    H1      19.966496   22.013428   21.532836 H          1 MOL1         0.0832
       3    H2      20.684523   20.463745   21.116600 H          1 MOL1         0.0832
       4    C2      18.639580   20.356677   21.892563 C.3        1 MOL1        -0.1685
       5    H3      18.049176   20.833468   22.686714 H          1 MOL1         0.0832
       6    H4      18.131455   20.603057   20.950403 H          1 MOL1         0.0832
       7    C3      18.604409   18.823389   22.074262 C.3        1 MOL1        -0.1685
       8    H5      19.008249   18.339503   21.175008 H          1 MOL1         0.0832
       9    H6      17.552274   18.513091   22.127670 H          1 MOL1         0.0832
      10    C4      19.335051   18.291627   23.337028 C.3        1 MOL1        -0.1761
      11    H7      18.987266   18.829613   24.228024 H          1 MOL1         0.0832
      12    H8      19.028897   17.247800   23.482903 H          1 MOL1         0.0832
      13    C5      20.884496   18.309623   23.282916 C.3        1 MOL1         0.1218
      14    H9      21.235509   17.631019   24.073842 H          1 MOL1         0.0789
      15    C6      21.555555   19.679759   23.561391 C.3        1 MOL1        -0.1761
      16    H10     21.828375   19.713476   24.624167 H          1 MOL1         0.0832
      17    H11     22.508240   19.728563   23.017809 H          1 MOL1         0.0832
      18    C7      20.740828   20.959357   23.248743 C.3        1 MOL1        -0.1685
      19    H12     19.991338   21.125595   24.034264 H          1 MOL1         0.0832
      20    H13     21.425439   21.816292   23.309146 H          1 MOL1         0.0832
      21    O1      21.345646   17.794137   22.036909 O.3        1 MOL1        -0.5509
      22    H14     22.323587   17.792511   22.076135 H          1 MOL1         0.3779
@<TRIPOS>BOND
    1     1     2    1
    2     1     3    1
    3     1     4    1
    4     4     5    1
    5     4     6    1
    6     4     7    1
    7     7     8    1
    8     7     9    1
    9     7    10    1
   10    10    11    1
   11    10    12    1
   12    10    13    1
   13    13    14    1
   14    13    15    1
   15    15    16    1
   16    15    17    1
   17     1    18    1
   18    15    18    1
   19    18    19    1
   20    18    20    1
   21    13    21    1
   22    21    22    1
@<TRIPOS>SUBSTRUCTURE
       1 MOL1            1 RESIDUE      1      MOL     
@<SCITEGIC>MOL_PROPERTY
VConf Rank
SciTegic.value.IntegerValue
126

@<SCITEGIC>MOL_PROPERTY
Conf_Id
SciTegic.value.IntegerValue
104

@<SCITEGIC>MOL_PROPERTY
Delta U+W
SciTegic.value.DoubleValue
-1.172

@<SCITEGIC>MOL_PROPERTY
U+W
SciTegic.value.DoubleValue
5.252

@<SCITEGIC>MOL_PROPERTY
Grad RMS
SciTegic.value.DoubleValue
0.000000

@<SCITEGIC>MOL_PROPERTY
U
SciTegic.value.DoubleValue
7.482

@<SCITEGIC>MOL_PROPERTY
W
SciTegic.value.DoubleValue
-2.230

@<SCITEGIC>MOL_PROPERTY
W(PB)
SciTegic.value.DoubleValue
-4.220

@<SCITEGIC>MOL_PROPERTY
W(SA)
SciTegic.value.DoubleValue
1.990

@<SCITEGIC>MOL_PROPERTY
Valence
SciTegic.value.DoubleValue
12.309

@<SCITEGIC>MOL_PROPERTY
Coulomb
SciTegic.value.DoubleValue
-7.084

@<SCITEGIC>MOL_PROPERTY
VdW
SciTegic.value.DoubleValue
2.258

@<SCITEGIC>MOL_PROPERTY
VdW6
SciTegic.value.DoubleValue
-9.770

@<SCITEGIC>MOL_PROPERTY
VdW12
SciTegic.value.DoubleValue
12.028

@<SCITEGIC>MOL_PROPERTY
Bond
SciTegic.value.DoubleValue
0.284

@<SCITEGIC>MOL_PROPERTY
Angle
SciTegic.value.DoubleValue
3.491

@<SCITEGIC>MOL_PROPERTY
Pdih
SciTegic.value.DoubleValue
8.535

@<SCITEGIC>MOL_PROPERTY
Idih
SciTegic.value.DoubleValue
0.000

@<SCITEGIC>MOL_PROPERTY
Tether
SciTegic.value.DoubleValue
0.000

@<TRIPOS>MOLECULE
guest-5_confgen4.mol2 : confsearch ligand conformer 127
          22          22           1
SMALL
USER_CHARGES
 
@<TRIPOS>ATOM
       1    C1      18.841195   19.528417   21.570028 C.3        1 MOL1        -0.1685
       2    H1      18.660468   18.457454   21.733912 H          1 MOL1         0.0832
       3    H2      18.131915   19.838714   20.790556 H          1 MOL1         0.0832
       4    C2      20.270120   19.771392   21.032794 C.3        1 MOL1        -0.1685
       5    H3      20.282391   19.548998   19.956858 H          1 MOL1         0.0832
       6    H4      20.508590   20.840666   21.104366 H          1 MOL1         0.0832
       7    C3      21.390023   18.933765   21.700529 C.3        1 MOL1        -0.1685
       8    H5      22.340359   19.474540   21.592180 H          1 MOL1         0.0832
       9    H6      21.517000   18.004619   21.128259 H          1 MOL1         0.0832
      10    C4      21.193628   18.542287   23.190287 C.3        1 MOL1        -0.1761
      11    H7      20.503962   17.690342   23.249508 H          1 MOL1         0.0832
      12    H8      22.151459   18.163901   23.570266 H          1 MOL1         0.0832
      13    C5      20.699347   19.648773   24.150160 C.3        1 MOL1         0.1218
      14    H9      20.987137   19.350689   25.168592 H          1 MOL1         0.0789
      15    C6      19.161639   19.802772   24.147489 C.3        1 MOL1        -0.1761
      16    H10     18.710569   18.830923   24.386458 H          1 MOL1         0.0832
      17    H11     18.883096   20.469075   24.974351 H          1 MOL1         0.0832
      18    C7      18.523349   20.345558   22.844891 C.3        1 MOL1        -0.1685
      19    H12     17.433758   20.357606   22.984015 H          1 MOL1         0.0832
      20    H13     18.813390   21.394607   22.697072 H          1 MOL1         0.0832
      21    O1      21.315859   20.889114   23.840910 O.3        1 MOL1        -0.5509
      22    H14     21.084455   21.043310   22.903380 H          1 MOL1         0.3779
@<TRIPOS>BOND
    1     1     2    1
    2     1     3    1
    3     1     4    1
    4     4     5    1
    5     4     6    1
    6     4     7    1
    7     7     8    1
    8     7     9    1
    9     7    10    1
   10    10    11    1
   11    10    12    1
   12    10    13    1
   13    13    14    1
   14    13    15    1
   15    15    16    1
   16    15    17    1
   17     1    18    1
   18    15    18    1
   19    18    19    1
   20    18    20    1
   21    13    21    1
   22    21    22    1
@<TRIPOS>SUBSTRUCTURE
       1 MOL1            1 RESIDUE      1      MOL     
@<SCITEGIC>MOL_PROPERTY
VConf Rank
SciTegic.value.IntegerValue
127

@<SCITEGIC>MOL_PROPERTY
Conf_Id
SciTegic.value.IntegerValue
99

@<SCITEGIC>MOL_PROPERTY
Delta U+W
SciTegic.value.DoubleValue
-3.852

@<SCITEGIC>MOL_PROPERTY
U+W
SciTegic.value.DoubleValue
2.572

@<SCITEGIC>MOL_PROPERTY
Grad RMS
SciTegic.value.DoubleValue
0.000000

@<SCITEGIC>MOL_PROPERTY
U
SciTegic.value.DoubleValue
3.922

@<SCITEGIC>MOL_PROPERTY
W
SciTegic.value.DoubleValue
-1.350

@<SCITEGIC>MOL_PROPERTY
W(PB)
SciTegic.value.DoubleValue
-3.345

@<SCITEGIC>MOL_PROPERTY
W(SA)
SciTegic.value.DoubleValue
1.995

@<SCITEGIC>MOL_PROPERTY
Valence
SciTegic.value.DoubleValue
12.571

@<SCITEGIC>MOL_PROPERTY
Coulomb
SciTegic.value.DoubleValue
-10.581

@<SCITEGIC>MOL_PROPERTY
VdW
SciTegic.value.DoubleValue
1.932

@<SCITEGIC>MOL_PROPERTY
VdW6
SciTegic.value.DoubleValue
-10.483

@<SCITEGIC>MOL_PROPERTY
VdW12
SciTegic.value.DoubleValue
12.415

@<SCITEGIC>MOL_PROPERTY
Bond
SciTegic.value.DoubleValue
0.268

@<SCITEGIC>MOL_PROPERTY
Angle
SciTegic.value.DoubleValue
3.728

@<SCITEGIC>MOL_PROPERTY
Pdih
SciTegic.value.DoubleValue
8.575

@<SCITEGIC>MOL_PROPERTY
Idih
SciTegic.value.DoubleValue
0.000

@<SCITEGIC>MOL_PROPERTY
Tether
SciTegic.value.DoubleValue
0.000

@<TRIPOS>MOLECULE
guest-5_confgen4.mol2 : confsearch ligand conformer 128
          22          22           1
SMALL
USER_CHARGES
 
@<TRIPOS>ATOM
       1    C1      19.257484   20.496920   21.539577 C.3        1 MOL1        -0.1685
       2    H1      18.845747   21.446511   21.170739 H          1 MOL1         0.0832
       3    H2      19.028028   19.764726   20.753895 H          1 MOL1         0.0832
       4    C2      18.505845   20.128484   22.852264 C.3        1 MOL1        -0.1685
       5    H3      17.768664   20.918520   23.051507 H          1 MOL1         0.0832
       6    H4      17.911130   19.217109   22.704738 H          1 MOL1         0.0832
       7    C3      19.386500   19.974183   24.118513 C.3        1 MOL1        -0.1685
       8    H5      18.726141   19.910066   24.994036 H          1 MOL1         0.0832
       9    H6      19.968438   20.890287   24.278736 H          1 MOL1         0.0832
      10    C4      20.331690   18.740995   24.144843 C.3        1 MOL1        -0.1761
      11    H7      21.144893   18.947246   24.852588 H          1 MOL1         0.0832
      12    H8      19.782405   17.892169   24.573536 H          1 MOL1         0.0832
      13    C5      20.953747   18.266827   22.808292 C.3        1 MOL1         0.1218
      14    H9      21.748188   17.550450   23.062147 H          1 MOL1         0.0789
      15    C6      21.601402   19.363127   21.926923 C.3        1 MOL1        -0.1761
      16    H10     22.564788   19.642750   22.372388 H          1 MOL1         0.0832
      17    H11     21.850729   18.905794   20.960135 H          1 MOL1         0.0832
      18    C7      20.793785   20.663789   21.660772 C.3        1 MOL1        -0.1685
      19    H12     21.025700   21.408161   22.432584 H          1 MOL1         0.0832
      20    H13     21.168720   21.107144   20.728257 H          1 MOL1         0.0832
      21    O1      19.980359   17.562545   22.053477 O.3        1 MOL1        -0.5509
      22    H14     19.301490   18.238100   21.854242 H          1 MOL1         0.3779
@<TRIPOS>BOND
    1     1     2    1
    2     1     3    1
    3     1     4    1
    4     4     5    1
    5     4     6    1
    6     4     7    1
    7     7     8    1
    8     7     9    1
    9     7    10    1
   10    10    11    1
   11    10    12    1
   12    10    13    1
   13    13    14    1
   14    13    15    1
   15    15    16    1
   16    15    17    1
   17     1    18    1
   18    15    18    1
   19    18    19    1
   20    18    20    1
   21    13    21    1
   22    21    22    1
@<TRIPOS>SUBSTRUCTURE
       1 MOL1            1 RESIDUE      1      MOL     
@<SCITEGIC>MOL_PROPERTY
VConf Rank
SciTegic.value.IntegerValue
128

@<SCITEGIC>MOL_PROPERTY
Conf_Id
SciTegic.value.IntegerValue
98

@<SCITEGIC>MOL_PROPERTY
Delta U+W
SciTegic.value.DoubleValue
0.930

@<SCITEGIC>MOL_PROPERTY
U+W
SciTegic.value.DoubleValue
7.353

@<SCITEGIC>MOL_PROPERTY
Grad RMS
SciTegic.value.DoubleValue
0.000000

@<SCITEGIC>MOL_PROPERTY
U
SciTegic.value.DoubleValue
8.455

@<SCITEGIC>MOL_PROPERTY
W
SciTegic.value.DoubleValue
-1.102

@<SCITEGIC>MOL_PROPERTY
W(PB)
SciTegic.value.DoubleValue
-3.101

@<SCITEGIC>MOL_PROPERTY
W(SA)
SciTegic.value.DoubleValue
2.000

@<SCITEGIC>MOL_PROPERTY
Valence
SciTegic.value.DoubleValue
15.601

@<SCITEGIC>MOL_PROPERTY
Coulomb
SciTegic.value.DoubleValue
-10.573

@<SCITEGIC>MOL_PROPERTY
VdW
SciTegic.value.DoubleValue
3.427

@<SCITEGIC>MOL_PROPERTY
VdW6
SciTegic.value.DoubleValue
-11.360

@<SCITEGIC>MOL_PROPERTY
VdW12
SciTegic.value.DoubleValue
14.787

@<SCITEGIC>MOL_PROPERTY
Bond
SciTegic.value.DoubleValue
0.471

@<SCITEGIC>MOL_PROPERTY
Angle
SciTegic.value.DoubleValue
5.445

@<SCITEGIC>MOL_PROPERTY
Pdih
SciTegic.value.DoubleValue
9.685

@<SCITEGIC>MOL_PROPERTY
Idih
SciTegic.value.DoubleValue
0.000

@<SCITEGIC>MOL_PROPERTY
Tether
SciTegic.value.DoubleValue
0.000

@<TRIPOS>MOLECULE
guest-5_confgen4.mol2 : confsearch ligand conformer 129
          22          22           1
SMALL
USER_CHARGES
 
@<TRIPOS>ATOM
       1    C1      21.586098   20.228276   22.732063 C.3        1 MOL1        -0.1685
       2    H1      21.978200   19.205484   22.802304 H          1 MOL1         0.0832
       3    H2      22.474895   20.873450   22.709637 H          1 MOL1         0.0832
       4    C2      20.765385   20.563202   24.003446 C.3        1 MOL1        -0.1685
       5    H3      21.435211   20.454847   24.867429 H          1 MOL1         0.0832
       6    H4      20.473507   21.622006   23.984351 H          1 MOL1         0.0832
       7    C3      19.504809   19.690560   24.256605 C.3        1 MOL1        -0.1685
       8    H5      18.599478   20.250274   23.988071 H          1 MOL1         0.0832
       9    H6      19.419707   19.517371   25.337992 H          1 MOL1         0.0832
      10    C4      19.498866   18.318717   23.531539 C.3        1 MOL1        -0.1761
      11    H7      20.434797   17.790727   23.752642 H          1 MOL1         0.0832
      12    H8      18.711974   17.695998   23.978091 H          1 MOL1         0.0832
      13    C5      19.290222   18.365428   21.989412 C.3        1 MOL1         0.1218
      14    H9      20.032525   17.699094   21.526755 H          1 MOL1         0.0789
      15    C6      19.417860   19.761994   21.330951 C.3        1 MOL1        -0.1761
      16    H10     19.131407   19.684220   20.274091 H          1 MOL1         0.0832
      17    H11     18.686196   20.447653   21.774944 H          1 MOL1         0.0832
      18    C7      20.828107   20.399921   21.394667 C.3        1 MOL1        -0.1685
      19    H12     21.447551   19.973638   20.593801 H          1 MOL1         0.0832
      20    H13     20.736542   21.470687   21.167187 H          1 MOL1         0.0832
      21    O1      17.987695   17.873099   21.695793 O.3        1 MOL1        -0.5509
      22    H14     17.904224   17.859157   20.719567 H          1 MOL1         0.3779
@<TRIPOS>BOND
    1     1     2    1
    2     1     3    1
    3     1     4    1
    4     4     5    1
    5     4     6    1
    6     4     7    1
    7     7     8    1
    8     7     9    1
    9     7    10    1
   10    10    11    1
   11    10    12    1
   12    10    13    1
   13    13    14    1
   14    13    15    1
   15    15    16    1
   16    15    17    1
   17     1    18    1
   18    15    18    1
   19    18    19    1
   20    18    20    1
   21    13    21    1
   22    21    22    1
@<TRIPOS>SUBSTRUCTURE
       1 MOL1            1 RESIDUE      1      MOL     
@<SCITEGIC>MOL_PROPERTY
VConf Rank
SciTegic.value.IntegerValue
129

@<SCITEGIC>MOL_PROPERTY
Conf_Id
SciTegic.value.IntegerValue
141

@<SCITEGIC>MOL_PROPERTY
Delta U+W
SciTegic.value.DoubleValue
0.000

@<SCITEGIC>MOL_PROPERTY
U+W
SciTegic.value.DoubleValue
6.423

@<SCITEGIC>MOL_PROPERTY
Grad RMS
SciTegic.value.DoubleValue
0.000000

@<SCITEGIC>MOL_PROPERTY
U
SciTegic.value.DoubleValue
8.781

@<SCITEGIC>MOL_PROPERTY
W
SciTegic.value.DoubleValue
-2.358

@<SCITEGIC>MOL_PROPERTY
W(PB)
SciTegic.value.DoubleValue
-4.373

@<SCITEGIC>MOL_PROPERTY
W(SA)
SciTegic.value.DoubleValue
2.015

@<SCITEGIC>MOL_PROPERTY
Valence
SciTegic.value.DoubleValue
13.328

@<SCITEGIC>MOL_PROPERTY
Coulomb
SciTegic.value.DoubleValue
-8.387

@<SCITEGIC>MOL_PROPERTY
VdW
SciTegic.value.DoubleValue
3.840

@<SCITEGIC>MOL_PROPERTY
VdW6
SciTegic.value.DoubleValue
-9.744

@<SCITEGIC>MOL_PROPERTY
VdW12
SciTegic.value.DoubleValue
13.584

@<SCITEGIC>MOL_PROPERTY
Bond
SciTegic.value.DoubleValue
0.436

@<SCITEGIC>MOL_PROPERTY
Angle
SciTegic.value.DoubleValue
3.478

@<SCITEGIC>MOL_PROPERTY
Pdih
SciTegic.value.DoubleValue
9.415

@<SCITEGIC>MOL_PROPERTY
Idih
SciTegic.value.DoubleValue
0.000

@<SCITEGIC>MOL_PROPERTY
Tether
SciTegic.value.DoubleValue
0.000

@<TRIPOS>MOLECULE
guest-5_confgen4.mol2 : confsearch ligand conformer 130
          22          22           1
SMALL
USER_CHARGES
 
@<TRIPOS>ATOM
       1    C1      20.481842   21.278538   22.829772 C.3        1 MOL1        -0.1685
       2    H1      20.808053   21.264346   21.780967 H          1 MOL1         0.0832
       3    H2      20.648637   22.304367   23.185802 H          1 MOL1         0.0832
       4    C2      21.352843   20.334356   23.693214 C.3        1 MOL1        -0.1685
       5    H3      22.365232   20.755640   23.759878 H          1 MOL1         0.0832
       6    H4      20.966662   20.321618   24.721601 H          1 MOL1         0.0832
       7    C3      21.467842   18.883240   23.172284 C.3        1 MOL1        -0.1685
       8    H5      22.049512   18.302796   23.901373 H          1 MOL1         0.0832
       9    H6      22.056066   18.874197   22.244453 H          1 MOL1         0.0832
      10    C4      20.117148   18.165050   22.933519 C.3        1 MOL1        -0.1761
      11    H7      20.329171   17.096677   22.795279 H          1 MOL1         0.0832
      12    H8      19.477790   18.236967   23.822928 H          1 MOL1         0.0832
      13    C5      19.372357   18.694081   21.687309 C.3        1 MOL1         0.1218
      14    H9      20.121311   18.996527   20.941362 H          1 MOL1         0.0789
      15    C6      18.443473   19.899522   21.958201 C.3        1 MOL1        -0.1761
      16    H10     18.232878   20.378774   20.993413 H          1 MOL1         0.0832
      17    H11     17.476385   19.536469   22.331087 H          1 MOL1         0.0832
      18    C7      18.969793   20.973606   22.942770 C.3        1 MOL1        -0.1685
      19    H12     18.405094   21.899648   22.768451 H          1 MOL1         0.0832
      20    H13     18.733532   20.674848   23.973126 H          1 MOL1         0.0832
      21    O1      18.583043   17.642695   21.144364 O.3        1 MOL1        -0.5509
      22    H14     19.200394   16.918547   20.909619 H          1 MOL1         0.3779
@<TRIPOS>BOND
    1     1     2    1
    2     1     3    1
    3     1     4    1
    4     4     5    1
    5     4     6    1
    6     4     7    1
    7     7     8    1
    8     7     9    1
    9     7    10    1
   10    10    11    1
   11    10    12    1
   12    10    13    1
   13    13    14    1
   14    13    15    1
   15    15    16    1
   16    15    17    1
   17     1    18    1
   18    15    18    1
   19    18    19    1
   20    18    20    1
   21    13    21    1
   22    21    22    1
@<TRIPOS>SUBSTRUCTURE
       1 MOL1            1 RESIDUE      1      MOL     
@<SCITEGIC>MOL_PROPERTY
VConf Rank
SciTegic.value.IntegerValue
130

@<SCITEGIC>MOL_PROPERTY
Conf_Id
SciTegic.value.IntegerValue
144

@<SCITEGIC>MOL_PROPERTY
Delta U+W
SciTegic.value.DoubleValue
-3.291

@<SCITEGIC>MOL_PROPERTY
U+W
SciTegic.value.DoubleValue
3.132

@<SCITEGIC>MOL_PROPERTY
Grad RMS
SciTegic.value.DoubleValue
0.000000

@<SCITEGIC>MOL_PROPERTY
U
SciTegic.value.DoubleValue
5.411

@<SCITEGIC>MOL_PROPERTY
W
SciTegic.value.DoubleValue
-2.279

@<SCITEGIC>MOL_PROPERTY
W(PB)
SciTegic.value.DoubleValue
-4.300

@<SCITEGIC>MOL_PROPERTY
W(SA)
SciTegic.value.DoubleValue
2.021

@<SCITEGIC>MOL_PROPERTY
Valence
SciTegic.value.DoubleValue
11.909

@<SCITEGIC>MOL_PROPERTY
Coulomb
SciTegic.value.DoubleValue
-8.733

@<SCITEGIC>MOL_PROPERTY
VdW
SciTegic.value.DoubleValue
2.236

@<SCITEGIC>MOL_PROPERTY
VdW6
SciTegic.value.DoubleValue
-8.936

@<SCITEGIC>MOL_PROPERTY
VdW12
SciTegic.value.DoubleValue
11.172

@<SCITEGIC>MOL_PROPERTY
Bond
SciTegic.value.DoubleValue
0.223

@<SCITEGIC>MOL_PROPERTY
Angle
SciTegic.value.DoubleValue
2.457

@<SCITEGIC>MOL_PROPERTY
Pdih
SciTegic.value.DoubleValue
9.228

@<SCITEGIC>MOL_PROPERTY
Idih
SciTegic.value.DoubleValue
0.000

@<SCITEGIC>MOL_PROPERTY
Tether
SciTegic.value.DoubleValue
0.000

@<TRIPOS>MOLECULE
guest-5_confgen4.mol2 : confsearch ligand conformer 131
          22          22           1
SMALL
USER_CHARGES
 
@<TRIPOS>ATOM
       1    C1      20.627896   19.655050   24.240546 C.3        1 MOL1        -0.1685
       2    H1      21.256077   19.526025   25.132528 H          1 MOL1         0.0832
       3    H2      19.853496   20.383442   24.517007 H          1 MOL1         0.0832
       4    C2      19.998148   18.284910   23.896730 C.3        1 MOL1        -0.1685
       5    H3      20.718125   17.685202   23.323356 H          1 MOL1         0.0832
       6    H4      19.829223   17.727643   24.828350 H          1 MOL1         0.0832
       7    C3      18.654060   18.353628   23.132121 C.3        1 MOL1        -0.1685
       8    H5      17.838816   18.496490   23.854537 H          1 MOL1         0.0832
       9    H6      18.473444   17.374030   22.668674 H          1 MOL1         0.0832
      10    C4      18.536007   19.453422   22.048305 C.3        1 MOL1        -0.1761
      11    H7      17.705055   19.181772   21.383328 H          1 MOL1         0.0832
      12    H8      18.240336   20.397636   22.523628 H          1 MOL1         0.0832
      13    C5      19.813761   19.681712   21.209960 C.3        1 MOL1         0.1218
      14    H9      20.338729   18.725891   21.071096 H          1 MOL1         0.0789
      15    C6      20.770377   20.709706   21.855786 C.3        1 MOL1        -0.1761
      16    H10     21.515782   21.014043   21.108871 H          1 MOL1         0.0832
      17    H11     20.211334   21.618468   22.114068 H          1 MOL1         0.0832
      18    C7      21.526940   20.206586   23.108062 C.3        1 MOL1        -0.1685
      19    H12     22.252148   19.436910   22.810410 H          1 MOL1         0.0832
      20    H13     22.121672   21.039493   23.507246 H          1 MOL1         0.0832
      21    O1      19.429175   20.183426   19.936936 O.3        1 MOL1        -0.5509
      22    H14     18.965471   21.030144   20.101882 H          1 MOL1         0.3779
@<TRIPOS>BOND
    1     1     2    1
    2     1     3    1
    3     1     4    1
    4     4     5    1
    5     4     6    1
    6     4     7    1
    7     7     8    1
    8     7     9    1
    9     7    10    1
   10    10    11    1
   11    10    12    1
   12    10    13    1
   13    13    14    1
   14    13    15    1
   15    15    16    1
   16    15    17    1
   17     1    18    1
   18    15    18    1
   19    18    19    1
   20    18    20    1
   21    13    21    1
   22    21    22    1
@<TRIPOS>SUBSTRUCTURE
       1 MOL1            1 RESIDUE      1      MOL     
@<SCITEGIC>MOL_PROPERTY
VConf Rank
SciTegic.value.IntegerValue
131

@<SCITEGIC>MOL_PROPERTY
Conf_Id
SciTegic.value.IntegerValue
76

@<SCITEGIC>MOL_PROPERTY
Delta U+W
SciTegic.value.DoubleValue
-3.175

@<SCITEGIC>MOL_PROPERTY
U+W
SciTegic.value.DoubleValue
3.248

@<SCITEGIC>MOL_PROPERTY
Grad RMS
SciTegic.value.DoubleValue
0.000000

@<SCITEGIC>MOL_PROPERTY
U
SciTegic.value.DoubleValue
5.336

@<SCITEGIC>MOL_PROPERTY
W
SciTegic.value.DoubleValue
-2.088

@<SCITEGIC>MOL_PROPERTY
W(PB)
SciTegic.value.DoubleValue
-4.098

@<SCITEGIC>MOL_PROPERTY
W(SA)
SciTegic.value.DoubleValue
2.010

@<SCITEGIC>MOL_PROPERTY
Valence
SciTegic.value.DoubleValue
12.390

@<SCITEGIC>MOL_PROPERTY
Coulomb
SciTegic.value.DoubleValue
-9.270

@<SCITEGIC>MOL_PROPERTY
VdW
SciTegic.value.DoubleValue
2.216

@<SCITEGIC>MOL_PROPERTY
VdW6
SciTegic.value.DoubleValue
-8.967

@<SCITEGIC>MOL_PROPERTY
VdW12
SciTegic.value.DoubleValue
11.183

@<SCITEGIC>MOL_PROPERTY
Bond
SciTegic.value.DoubleValue
0.218

@<SCITEGIC>MOL_PROPERTY
Angle
SciTegic.value.DoubleValue
2.426

@<SCITEGIC>MOL_PROPERTY
Pdih
SciTegic.value.DoubleValue
9.745

@<SCITEGIC>MOL_PROPERTY
Idih
SciTegic.value.DoubleValue
0.000

@<SCITEGIC>MOL_PROPERTY
Tether
SciTegic.value.DoubleValue
0.000

@<TRIPOS>MOLECULE
guest-5_confgen4.mol2 : confsearch ligand conformer 132
          22          22           1
SMALL
USER_CHARGES
 
@<TRIPOS>ATOM
       1    C1      20.048021   17.972915   21.684987 C.3        1 MOL1        -0.1685
       2    H1      20.725816   17.696034   20.866017 H          1 MOL1         0.0832
       3    H2      19.407352   17.096110   21.851036 H          1 MOL1         0.0832
       4    C2      19.168644   19.153258   21.207326 C.3        1 MOL1        -0.1685
       5    H3      19.764086   19.818628   20.567630 H          1 MOL1         0.0832
       6    H4      18.381117   18.748383   20.557203 H          1 MOL1         0.0832
       7    C3      18.511466   19.978944   22.337770 C.3        1 MOL1        -0.1685
       8    H5      18.200207   19.331037   23.168534 H          1 MOL1         0.0832
       9    H6      17.591381   20.428673   21.940933 H          1 MOL1         0.0832
      10    C4      19.417875   21.129026   22.845525 C.3        1 MOL1        -0.1761
      11    H7      19.771106   21.715511   21.987752 H          1 MOL1         0.0832
      12    H8      18.807060   21.818769   23.442662 H          1 MOL1         0.0832
      13    C5      20.637107   20.711772   23.699031 C.3        1 MOL1         0.1218
      14    H9      21.262171   21.608485   23.818603 H          1 MOL1         0.0789
      15    C6      21.532637   19.611773   23.075721 C.3        1 MOL1        -0.1761
      16    H10     21.887471   19.935853   22.088835 H          1 MOL1         0.0832
      17    H11     22.431714   19.524152   23.699236 H          1 MOL1         0.0832
      18    C7      20.877322   18.210161   22.969588 C.3        1 MOL1        -0.1685
      19    H12     21.666531   17.447157   23.006955 H          1 MOL1         0.0832
      20    H13     20.248230   18.020794   23.849260 H          1 MOL1         0.0832
      21    O1      20.190864   20.306939   24.989380 O.3        1 MOL1        -0.5509
      22    H14     20.984042   20.003432   25.476243 H          1 MOL1         0.3779
@<TRIPOS>BOND
    1     1     2    1
    2     1     3    1
    3     1     4    1
    4     4     5    1
    5     4     6    1
    6     4     7    1
    7     7     8    1
    8     7     9    1
    9     7    10    1
   10    10    11    1
   11    10    12    1
   12    10    13    1
   13    13    14    1
   14    13    15    1
   15    15    16    1
   16    15    17    1
   17     1    18    1
   18    15    18    1
   19    18    19    1
   20    18    20    1
   21    13    21    1
   22    21    22    1
@<TRIPOS>SUBSTRUCTURE
       1 MOL1            1 RESIDUE      1      MOL     
@<SCITEGIC>MOL_PROPERTY
VConf Rank
SciTegic.value.IntegerValue
132

@<SCITEGIC>MOL_PROPERTY
Conf_Id
SciTegic.value.IntegerValue
95

@<SCITEGIC>MOL_PROPERTY
Delta U+W
SciTegic.value.DoubleValue
-2.289

@<SCITEGIC>MOL_PROPERTY
U+W
SciTegic.value.DoubleValue
4.134

@<SCITEGIC>MOL_PROPERTY
Grad RMS
SciTegic.value.DoubleValue
0.000000

@<SCITEGIC>MOL_PROPERTY
U
SciTegic.value.DoubleValue
6.373

@<SCITEGIC>MOL_PROPERTY
W
SciTegic.value.DoubleValue
-2.240

@<SCITEGIC>MOL_PROPERTY
W(PB)
SciTegic.value.DoubleValue
-4.254

@<SCITEGIC>MOL_PROPERTY
W(SA)
SciTegic.value.DoubleValue
2.015

@<SCITEGIC>MOL_PROPERTY
Valence
SciTegic.value.DoubleValue
12.093

@<SCITEGIC>MOL_PROPERTY
Coulomb
SciTegic.value.DoubleValue
-8.058

@<SCITEGIC>MOL_PROPERTY
VdW
SciTegic.value.DoubleValue
2.339

@<SCITEGIC>MOL_PROPERTY
VdW6
SciTegic.value.DoubleValue
-9.683

@<SCITEGIC>MOL_PROPERTY
VdW12
SciTegic.value.DoubleValue
12.022

@<SCITEGIC>MOL_PROPERTY
Bond
SciTegic.value.DoubleValue
0.268

@<SCITEGIC>MOL_PROPERTY
Angle
SciTegic.value.DoubleValue
3.005

@<SCITEGIC>MOL_PROPERTY
Pdih
SciTegic.value.DoubleValue
8.820

@<SCITEGIC>MOL_PROPERTY
Idih
SciTegic.value.DoubleValue
0.000

@<SCITEGIC>MOL_PROPERTY
Tether
SciTegic.value.DoubleValue
0.000

@<TRIPOS>MOLECULE
guest-5_confgen4.mol2 : confsearch ligand conformer 133
          22          22           1
SMALL
USER_CHARGES
 
@<TRIPOS>ATOM
       1    C1      20.936775   18.301190   21.660160 C.3        1 MOL1        -0.1685
       2    H1      21.240757   18.363514   20.606374 H          1 MOL1         0.0832
       3    H2      21.287304   17.322031   22.013946 H          1 MOL1         0.0832
       4    C2      19.390891   18.331605   21.720535 C.3        1 MOL1        -0.1685
       5    H3      19.007372   19.002732   20.940162 H          1 MOL1         0.0832
       6    H4      19.021252   17.331752   21.455089 H          1 MOL1         0.0832
       7    C3      18.796347   18.739876   23.088508 C.3        1 MOL1        -0.1685
       8    H5      19.392330   18.328800   23.914729 H          1 MOL1         0.0832
       9    H6      17.800090   18.285682   23.175717 H          1 MOL1         0.0832
      10    C4      18.630487   20.273695   23.234107 C.3        1 MOL1        -0.1761
      11    H7      18.106656   20.663441   22.351726 H          1 MOL1         0.0832
      12    H8      17.962722   20.475607   24.081635 H          1 MOL1         0.0832
      13    C5      19.931331   21.084341   23.435082 C.3        1 MOL1         0.1218
      14    H9      19.661082   22.146290   23.343821 H          1 MOL1         0.0789
      15    C6      21.045757   20.808318   22.394793 C.3        1 MOL1        -0.1761
      16    H10     20.669652   21.003014   21.382308 H          1 MOL1         0.0832
      17    H11     21.839817   21.546377   22.566742 H          1 MOL1         0.0832
      18    C7      21.678765   19.394213   22.465843 C.3        1 MOL1        -0.1685
      19    H12     22.709005   19.449839   22.089373 H          1 MOL1         0.0832
      20    H13     21.769859   19.078302   23.513470 H          1 MOL1         0.0832
      21    O1      20.426184   20.864182   24.752483 O.3        1 MOL1        -0.5509
      22    H14     19.681901   21.035018   25.364891 H          1 MOL1         0.3779
@<TRIPOS>BOND
    1     1     2    1
    2     1     3    1
    3     1     4    1
    4     4     5    1
    5     4     6    1
    6     4     7    1
    7     7     8    1
    8     7     9    1
    9     7    10    1
   10    10    11    1
   11    10    12    1
   12    10    13    1
   13    13    14    1
   14    13    15    1
   15    15    16    1
   16    15    17    1
   17     1    18    1
   18    15    18    1
   19    18    19    1
   20    18    20    1
   21    13    21    1
   22    21    22    1
@<TRIPOS>SUBSTRUCTURE
       1 MOL1            1 RESIDUE      1      MOL     
@<SCITEGIC>MOL_PROPERTY
VConf Rank
SciTegic.value.IntegerValue
133

@<SCITEGIC>MOL_PROPERTY
Conf_Id
SciTegic.value.IntegerValue
41

@<SCITEGIC>MOL_PROPERTY
Delta U+W
SciTegic.value.DoubleValue
-2.114

@<SCITEGIC>MOL_PROPERTY
U+W
SciTegic.value.DoubleValue
4.310

@<SCITEGIC>MOL_PROPERTY
Grad RMS
SciTegic.value.DoubleValue
0.000000

@<SCITEGIC>MOL_PROPERTY
U
SciTegic.value.DoubleValue
6.598

@<SCITEGIC>MOL_PROPERTY
W
SciTegic.value.DoubleValue
-2.289

@<SCITEGIC>MOL_PROPERTY
W(PB)
SciTegic.value.DoubleValue
-4.294

@<SCITEGIC>MOL_PROPERTY
W(SA)
SciTegic.value.DoubleValue
2.005

@<SCITEGIC>MOL_PROPERTY
Valence
SciTegic.value.DoubleValue
12.082

@<SCITEGIC>MOL_PROPERTY
Coulomb
SciTegic.value.DoubleValue
-7.801

@<SCITEGIC>MOL_PROPERTY
VdW
SciTegic.value.DoubleValue
2.317

@<SCITEGIC>MOL_PROPERTY
VdW6
SciTegic.value.DoubleValue
-9.658

@<SCITEGIC>MOL_PROPERTY
VdW12
SciTegic.value.DoubleValue
11.975

@<SCITEGIC>MOL_PROPERTY
Bond
SciTegic.value.DoubleValue
0.267

@<SCITEGIC>MOL_PROPERTY
Angle
SciTegic.value.DoubleValue
3.051

@<SCITEGIC>MOL_PROPERTY
Pdih
SciTegic.value.DoubleValue
8.764

@<SCITEGIC>MOL_PROPERTY
Idih
SciTegic.value.DoubleValue
0.000

@<SCITEGIC>MOL_PROPERTY
Tether
SciTegic.value.DoubleValue
0.000

@<TRIPOS>MOLECULE
guest-5_confgen4.mol2 : confsearch ligand conformer 134
          22          22           1
SMALL
USER_CHARGES
 
@<TRIPOS>ATOM
       1    C1      21.164199   18.712126   21.750167 C.3        1 MOL1        -0.1685
       2    H1      22.053002   18.294646   21.257939 H          1 MOL1         0.0832
       3    H2      20.332916   18.034664   21.511019 H          1 MOL1         0.0832
       4    C2      20.911344   20.117232   21.159298 C.3        1 MOL1        -0.1685
       5    H3      21.721678   20.794359   21.461688 H          1 MOL1         0.0832
       6    H4      20.966122   20.052291   20.064154 H          1 MOL1         0.0832
       7    C3      19.550299   20.740486   21.539211 C.3        1 MOL1        -0.1685
       8    H5      18.742155   20.176414   21.054841 H          1 MOL1         0.0832
       9    H6      19.506642   21.748234   21.104857 H          1 MOL1         0.0832
      10    C4      19.279007   20.853746   23.063927 C.3        1 MOL1        -0.1761
      11    H7      20.122722   21.349163   23.560883 H          1 MOL1         0.0832
      12    H8      18.420369   21.523772   23.199531 H          1 MOL1         0.0832
      13    C5      18.943167   19.527797   23.794066 C.3        1 MOL1         0.1218
      14    H9      18.475587   19.804072   24.750266 H          1 MOL1         0.0789
      15    C6      20.153578   18.626232   24.150756 C.3        1 MOL1        -0.1761
      16    H10     20.446286   18.846083   25.185672 H          1 MOL1         0.0832
      17    H11     19.828176   17.577663   24.160059 H          1 MOL1         0.0832
      18    C7      21.424021   18.742777   23.272524 C.3        1 MOL1        -0.1685
      19    H12     21.977959   19.653652   23.536859 H          1 MOL1         0.0832
      20    H13     22.089254   17.908059   23.532119 H          1 MOL1         0.0832
      21    O1      17.988645   18.776479   23.048863 O.3        1 MOL1        -0.5509
      22    H14     17.786760   17.975686   23.574108 H          1 MOL1         0.3779
@<TRIPOS>BOND
    1     1     2    1
    2     1     3    1
    3     1     4    1
    4     4     5    1
    5     4     6    1
    6     4     7    1
    7     7     8    1
    8     7     9    1
    9     7    10    1
   10    10    11    1
   11    10    12    1
   12    10    13    1
   13    13    14    1
   14    13    15    1
   15    15    16    1
   16    15    17    1
   17     1    18    1
   18    15    18    1
   19    18    19    1
   20    18    20    1
   21    13    21    1
   22    21    22    1
@<TRIPOS>SUBSTRUCTURE
       1 MOL1            1 RESIDUE      1      MOL     
@<SCITEGIC>MOL_PROPERTY
VConf Rank
SciTegic.value.IntegerValue
134

@<SCITEGIC>MOL_PROPERTY
Conf_Id
SciTegic.value.IntegerValue
104

@<SCITEGIC>MOL_PROPERTY
Delta U+W
SciTegic.value.DoubleValue
-1.172

@<SCITEGIC>MOL_PROPERTY
U+W
SciTegic.value.DoubleValue
5.252

@<SCITEGIC>MOL_PROPERTY
Grad RMS
SciTegic.value.DoubleValue
0.000000

@<SCITEGIC>MOL_PROPERTY
U
SciTegic.value.DoubleValue
7.482

@<SCITEGIC>MOL_PROPERTY
W
SciTegic.value.DoubleValue
-2.230

@<SCITEGIC>MOL_PROPERTY
W(PB)
SciTegic.value.DoubleValue
-4.220

@<SCITEGIC>MOL_PROPERTY
W(SA)
SciTegic.value.DoubleValue
1.990

@<SCITEGIC>MOL_PROPERTY
Valence
SciTegic.value.DoubleValue
12.309

@<SCITEGIC>MOL_PROPERTY
Coulomb
SciTegic.value.DoubleValue
-7.084

@<SCITEGIC>MOL_PROPERTY
VdW
SciTegic.value.DoubleValue
2.258

@<SCITEGIC>MOL_PROPERTY
VdW6
SciTegic.value.DoubleValue
-9.770

@<SCITEGIC>MOL_PROPERTY
VdW12
SciTegic.value.DoubleValue
12.028

@<SCITEGIC>MOL_PROPERTY
Bond
SciTegic.value.DoubleValue
0.284

@<SCITEGIC>MOL_PROPERTY
Angle
SciTegic.value.DoubleValue
3.491

@<SCITEGIC>MOL_PROPERTY
Pdih
SciTegic.value.DoubleValue
8.535

@<SCITEGIC>MOL_PROPERTY
Idih
SciTegic.value.DoubleValue
0.000

@<SCITEGIC>MOL_PROPERTY
Tether
SciTegic.value.DoubleValue
0.000

@<TRIPOS>MOLECULE
guest-5_confgen4.mol2 : confsearch ligand conformer 135
          22          22           1
SMALL
USER_CHARGES
 
@<TRIPOS>ATOM
       1    C1      18.736157   19.452751   23.630753 C.3        1 MOL1        -0.1685
       2    H1      18.626979   20.540145   23.740922 H          1 MOL1         0.0832
       3    H2      17.933870   19.005906   24.233749 H          1 MOL1         0.0832
       4    C2      20.086403   18.971909   24.209642 C.3        1 MOL1        -0.1685
       5    H3      19.995681   18.906894   25.302707 H          1 MOL1         0.0832
       6    H4      20.277940   17.942675   23.878994 H          1 MOL1         0.0832
       7    C3      21.310748   19.866678   23.890204 C.3        1 MOL1        -0.1685
       8    H5      22.216361   19.246109   23.935751 H          1 MOL1         0.0832
       9    H6      21.422218   20.603877   24.697075 H          1 MOL1         0.0832
      10    C4      21.292774   20.643794   22.545968 C.3        1 MOL1        -0.1761
      11    H7      20.656232   21.531635   22.653244 H          1 MOL1         0.0832
      12    H8      22.302984   21.034122   22.366744 H          1 MOL1         0.0832
      13    C5      20.848781   19.863793   21.287218 C.3        1 MOL1         0.1218
      14    H9      21.257160   20.392508   20.413966 H          1 MOL1         0.0789
      15    C6      19.313708   19.830925   21.111888 C.3        1 MOL1        -0.1761
      16    H10     18.939087   20.862705   21.099609 H          1 MOL1         0.0832
      17    H11     19.091662   19.424140   20.116667 H          1 MOL1         0.0832
      18    C7      18.515047   19.019535   22.161925 C.3        1 MOL1        -0.1685
      19    H12     17.447052   19.126199   21.928001 H          1 MOL1         0.0832
      20    H13     18.735574   17.949145   22.051882 H          1 MOL1         0.0832
      21    O1      21.366994   18.542780   21.310621 O.3        1 MOL1        -0.5509
      22    H14     21.030296   18.169297   22.149329 H          1 MOL1         0.3779
@<TRIPOS>BOND
    1     1     2    1
    2     1     3    1
    3     1     4    1
    4     4     5    1
    5     4     6    1
    6     4     7    1
    7     7     8    1
    8     7     9    1
    9     7    10    1
   10    10    11    1
   11    10    12    1
   12    10    13    1
   13    13    14    1
   14    13    15    1
   15    15    16    1
   16    15    17    1
   17     1    18    1
   18    15    18    1
   19    18    19    1
   20    18    20    1
   21    13    21    1
   22    21    22    1
@<TRIPOS>SUBSTRUCTURE
       1 MOL1            1 RESIDUE      1      MOL     
@<SCITEGIC>MOL_PROPERTY
VConf Rank
SciTegic.value.IntegerValue
135

@<SCITEGIC>MOL_PROPERTY
Conf_Id
SciTegic.value.IntegerValue
99

@<SCITEGIC>MOL_PROPERTY
Delta U+W
SciTegic.value.DoubleValue
-3.852

@<SCITEGIC>MOL_PROPERTY
U+W
SciTegic.value.DoubleValue
2.572

@<SCITEGIC>MOL_PROPERTY
Grad RMS
SciTegic.value.DoubleValue
0.000000

@<SCITEGIC>MOL_PROPERTY
U
SciTegic.value.DoubleValue
3.922

@<SCITEGIC>MOL_PROPERTY
W
SciTegic.value.DoubleValue
-1.350

@<SCITEGIC>MOL_PROPERTY
W(PB)
SciTegic.value.DoubleValue
-3.345

@<SCITEGIC>MOL_PROPERTY
W(SA)
SciTegic.value.DoubleValue
1.995

@<SCITEGIC>MOL_PROPERTY
Valence
SciTegic.value.DoubleValue
12.571

@<SCITEGIC>MOL_PROPERTY
Coulomb
SciTegic.value.DoubleValue
-10.581

@<SCITEGIC>MOL_PROPERTY
VdW
SciTegic.value.DoubleValue
1.932

@<SCITEGIC>MOL_PROPERTY
VdW6
SciTegic.value.DoubleValue
-10.483

@<SCITEGIC>MOL_PROPERTY
VdW12
SciTegic.value.DoubleValue
12.415

@<SCITEGIC>MOL_PROPERTY
Bond
SciTegic.value.DoubleValue
0.268

@<SCITEGIC>MOL_PROPERTY
Angle
SciTegic.value.DoubleValue
3.728

@<SCITEGIC>MOL_PROPERTY
Pdih
SciTegic.value.DoubleValue
8.575

@<SCITEGIC>MOL_PROPERTY
Idih
SciTegic.value.DoubleValue
0.000

@<SCITEGIC>MOL_PROPERTY
Tether
SciTegic.value.DoubleValue
0.000

@<TRIPOS>MOLECULE
guest-5_confgen4.mol2 : confsearch ligand conformer 136
          22          22           1
SMALL
USER_CHARGES
 
@<TRIPOS>ATOM
       1    C1      20.895188   18.377038   21.883779 C.3        1 MOL1        -0.1685
       2    H1      21.237051   17.336499   21.796025 H          1 MOL1         0.0832
       3    H2      21.273571   18.876325   20.981785 H          1 MOL1         0.0832
       4    C2      21.554878   18.990820   23.153398 C.3        1 MOL1        -0.1685
       5    H3      22.182402   18.215996   23.615081 H          1 MOL1         0.0832
       6    H4      22.253827   19.788572   22.868590 H          1 MOL1         0.0832
       7    C3      20.580409   19.517343   24.237802 C.3        1 MOL1        -0.1685
       8    H5      21.158641   19.738342   25.145290 H          1 MOL1         0.0832
       9    H6      19.892414   18.717068   24.537457 H          1 MOL1         0.0832
      10    C4      19.772622   20.791978   23.866835 C.3        1 MOL1        -0.1761
      11    H7      18.879288   20.829218   24.503473 H          1 MOL1         0.0832
      12    H8      20.365842   21.672433   24.147700 H          1 MOL1         0.0832
      13    C5      19.332535   20.976737   22.393626 C.3        1 MOL1         0.1218
      14    H9      18.597964   21.794657   22.379922 H          1 MOL1         0.0789
      15    C6      18.658305   19.755274   21.721624 C.3        1 MOL1        -0.1761
      16    H10     17.633185   19.670114   22.104530 H          1 MOL1         0.0832
      17    H11     18.550676   19.983374   20.652801 H          1 MOL1         0.0832
      18    C7      19.345302   18.368368   21.860647 C.3        1 MOL1        -0.1685
      19    H12     18.964501   17.854144   22.751788 H          1 MOL1         0.0832
      20    H13     19.014887   17.743966   21.019414 H          1 MOL1         0.0832
      21    O1      20.441519   21.396790   21.614555 O.3        1 MOL1        -0.5509
      22    H14     21.060864   20.640845   21.658066 H          1 MOL1         0.3779
@<TRIPOS>BOND
    1     1     2    1
    2     1     3    1
    3     1     4    1
    4     4     5    1
    5     4     6    1
    6     4     7    1
    7     7     8    1
    8     7     9    1
    9     7    10    1
   10    10    11    1
   11    10    12    1
   12    10    13    1
   13    13    14    1
   14    13    15    1
   15    15    16    1
   16    15    17    1
   17     1    18    1
   18    15    18    1
   19    18    19    1
   20    18    20    1
   21    13    21    1
   22    21    22    1
@<TRIPOS>SUBSTRUCTURE
       1 MOL1            1 RESIDUE      1      MOL     
@<SCITEGIC>MOL_PROPERTY
VConf Rank
SciTegic.value.IntegerValue
136

@<SCITEGIC>MOL_PROPERTY
Conf_Id
SciTegic.value.IntegerValue
98

@<SCITEGIC>MOL_PROPERTY
Delta U+W
SciTegic.value.DoubleValue
0.930

@<SCITEGIC>MOL_PROPERTY
U+W
SciTegic.value.DoubleValue
7.353

@<SCITEGIC>MOL_PROPERTY
Grad RMS
SciTegic.value.DoubleValue
0.000000

@<SCITEGIC>MOL_PROPERTY
U
SciTegic.value.DoubleValue
8.455

@<SCITEGIC>MOL_PROPERTY
W
SciTegic.value.DoubleValue
-1.102

@<SCITEGIC>MOL_PROPERTY
W(PB)
SciTegic.value.DoubleValue
-3.101

@<SCITEGIC>MOL_PROPERTY
W(SA)
SciTegic.value.DoubleValue
2.000

@<SCITEGIC>MOL_PROPERTY
Valence
SciTegic.value.DoubleValue
15.601

@<SCITEGIC>MOL_PROPERTY
Coulomb
SciTegic.value.DoubleValue
-10.573

@<SCITEGIC>MOL_PROPERTY
VdW
SciTegic.value.DoubleValue
3.427

@<SCITEGIC>MOL_PROPERTY
VdW6
SciTegic.value.DoubleValue
-11.360

@<SCITEGIC>MOL_PROPERTY
VdW12
SciTegic.value.DoubleValue
14.787

@<SCITEGIC>MOL_PROPERTY
Bond
SciTegic.value.DoubleValue
0.471

@<SCITEGIC>MOL_PROPERTY
Angle
SciTegic.value.DoubleValue
5.445

@<SCITEGIC>MOL_PROPERTY
Pdih
SciTegic.value.DoubleValue
9.685

@<SCITEGIC>MOL_PROPERTY
Idih
SciTegic.value.DoubleValue
0.000

@<SCITEGIC>MOL_PROPERTY
Tether
SciTegic.value.DoubleValue
0.000

@<TRIPOS>MOLECULE
guest-5_confgen4.mol2 : confsearch ligand conformer 137
          22          22           1
SMALL
USER_CHARGES
 
@<TRIPOS>ATOM
       1    C1      19.355190   18.048409   22.097109 C.3        1 MOL1        -0.1685
       2    H1      18.403076   18.364380   22.542554 H          1 MOL1         0.0832
       3    H2      19.137335   17.088220   21.609987 H          1 MOL1         0.0832
       4    C2      20.402224   17.808382   23.214368 C.3        1 MOL1        -0.1685
       5    H3      20.001484   17.033515   23.882098 H          1 MOL1         0.0832
       6    H4      21.315018   17.381318   22.777280 H          1 MOL1         0.0832
       7    C3      20.779477   19.043438   24.078638 C.3        1 MOL1        -0.1685
       8    H5      21.758909   19.432631   23.771626 H          1 MOL1         0.0832
       9    H6      20.921355   18.706194   25.114385 H          1 MOL1         0.0832
      10    C4      19.739243   20.194754   24.068865 C.3        1 MOL1        -0.1761
      11    H7      18.750204   19.788272   24.314223 H          1 MOL1         0.0832
      12    H8      19.974995   20.879602   24.894571 H          1 MOL1         0.0832
      13    C5      19.642454   21.012695   22.747700 C.3        1 MOL1         0.1218
      14    H9      18.577793   21.130150   22.499166 H          1 MOL1         0.0789
      15    C6      20.360823   20.401274   21.518730 C.3        1 MOL1        -0.1761
      16    H10     20.325241   21.121831   20.691332 H          1 MOL1         0.0832
      17    H11     21.427273   20.273879   21.740190 H          1 MOL1         0.0832
      18    C7      19.776264   19.061243   21.006465 C.3        1 MOL1        -0.1685
      19    H12     18.899196   19.272575   20.379645 H          1 MOL1         0.0832
      20    H13     20.514334   18.590338   20.343009 H          1 MOL1         0.0832
      21    O1      20.204398   22.300600   22.972860 O.3        1 MOL1        -0.5509
      22    H14     20.078969   22.812101   22.146535 H          1 MOL1         0.3779
@<TRIPOS>BOND
    1     1     2    1
    2     1     3    1
    3     1     4    1
    4     4     5    1
    5     4     6    1
    6     4     7    1
    7     7     8    1
    8     7     9    1
    9     7    10    1
   10    10    11    1
   11    10    12    1
   12    10    13    1
   13    13    14    1
   14    13    15    1
   15    15    16    1
   16    15    17    1
   17     1    18    1
   18    15    18    1
   19    18    19    1
   20    18    20    1
   21    13    21    1
   22    21    22    1
@<TRIPOS>SUBSTRUCTURE
       1 MOL1            1 RESIDUE      1      MOL     
@<SCITEGIC>MOL_PROPERTY
VConf Rank
SciTegic.value.IntegerValue
137

@<SCITEGIC>MOL_PROPERTY
Conf_Id
SciTegic.value.IntegerValue
141

@<SCITEGIC>MOL_PROPERTY
Delta U+W
SciTegic.value.DoubleValue
0.000

@<SCITEGIC>MOL_PROPERTY
U+W
SciTegic.value.DoubleValue
6.423

@<SCITEGIC>MOL_PROPERTY
Grad RMS
SciTegic.value.DoubleValue
0.000000

@<SCITEGIC>MOL_PROPERTY
U
SciTegic.value.DoubleValue
8.781

@<SCITEGIC>MOL_PROPERTY
W
SciTegic.value.DoubleValue
-2.358

@<SCITEGIC>MOL_PROPERTY
W(PB)
SciTegic.value.DoubleValue
-4.373

@<SCITEGIC>MOL_PROPERTY
W(SA)
SciTegic.value.DoubleValue
2.015

@<SCITEGIC>MOL_PROPERTY
Valence
SciTegic.value.DoubleValue
13.328

@<SCITEGIC>MOL_PROPERTY
Coulomb
SciTegic.value.DoubleValue
-8.387

@<SCITEGIC>MOL_PROPERTY
VdW
SciTegic.value.DoubleValue
3.840

@<SCITEGIC>MOL_PROPERTY
VdW6
SciTegic.value.DoubleValue
-9.744

@<SCITEGIC>MOL_PROPERTY
VdW12
SciTegic.value.DoubleValue
13.584

@<SCITEGIC>MOL_PROPERTY
Bond
SciTegic.value.DoubleValue
0.436

@<SCITEGIC>MOL_PROPERTY
Angle
SciTegic.value.DoubleValue
3.478

@<SCITEGIC>MOL_PROPERTY
Pdih
SciTegic.value.DoubleValue
9.415

@<SCITEGIC>MOL_PROPERTY
Idih
SciTegic.value.DoubleValue
0.000

@<SCITEGIC>MOL_PROPERTY
Tether
SciTegic.value.DoubleValue
0.000

@<TRIPOS>MOLECULE
guest-5_confgen4.mol2 : confsearch ligand conformer 138
          22          22           1
SMALL
USER_CHARGES
 
@<TRIPOS>ATOM
       1    C1      20.036594   21.248213   23.270349 C.3        1 MOL1        -0.1685
       2    H1      19.555937   20.894135   24.192415 H          1 MOL1         0.0832
       3    H2      20.240072   22.316667   23.424965 H          1 MOL1         0.0832
       4    C2      19.076862   21.122944   22.062509 C.3        1 MOL1        -0.1685
       5    H3      18.258793   21.845133   22.189243 H          1 MOL1         0.0832
       6    H4      19.602737   21.425493   21.146649 H          1 MOL1         0.0832
       7    C3      18.455776   19.722194   21.856403 C.3        1 MOL1        -0.1685
       8    H5      17.854261   19.746188   20.937474 H          1 MOL1         0.0832
       9    H6      17.749449   19.512746   22.671384 H          1 MOL1         0.0832
      10    C4      19.476905   18.563388   21.748497 C.3        1 MOL1        -0.1761
      11    H7      18.939307   17.680669   21.377983 H          1 MOL1         0.0832
      12    H8      20.243754   18.791710   20.996958 H          1 MOL1         0.0832
      13    C5      20.133357   18.218591   23.104156 C.3        1 MOL1         0.1218
      14    H9      19.397067   18.402420   23.899723 H          1 MOL1         0.0789
      15    C6      21.407878   19.031966   23.425579 C.3        1 MOL1        -0.1761
      16    H10     21.592036   18.946564   24.504301 H          1 MOL1         0.0832
      17    H11     22.271445   18.563205   22.935043 H          1 MOL1         0.0832
      18    C7      21.388531   20.532698   23.041556 C.3        1 MOL1        -0.1685
      19    H12     22.165716   21.042851   23.626835 H          1 MOL1         0.0832
      20    H13     21.689053   20.647080   21.991168 H          1 MOL1         0.0832
      21    O1      20.478338   16.838668   23.108601 O.3        1 MOL1        -0.5509
      22    H14     19.645191   16.338985   22.978980 H          1 MOL1         0.3779
@<TRIPOS>BOND
    1     1     2    1
    2     1     3    1
    3     1     4    1
    4     4     5    1
    5     4     6    1
    6     4     7    1
    7     7     8    1
    8     7     9    1
    9     7    10    1
   10    10    11    1
   11    10    12    1
   12    10    13    1
   13    13    14    1
   14    13    15    1
   15    15    16    1
   16    15    17    1
   17     1    18    1
   18    15    18    1
   19    18    19    1
   20    18    20    1
   21    13    21    1
   22    21    22    1
@<TRIPOS>SUBSTRUCTURE
       1 MOL1            1 RESIDUE      1      MOL     
@<SCITEGIC>MOL_PROPERTY
VConf Rank
SciTegic.value.IntegerValue
138

@<SCITEGIC>MOL_PROPERTY
Conf_Id
SciTegic.value.IntegerValue
144

@<SCITEGIC>MOL_PROPERTY
Delta U+W
SciTegic.value.DoubleValue
-3.291

@<SCITEGIC>MOL_PROPERTY
U+W
SciTegic.value.DoubleValue
3.132

@<SCITEGIC>MOL_PROPERTY
Grad RMS
SciTegic.value.DoubleValue
0.000000

@<SCITEGIC>MOL_PROPERTY
U
SciTegic.value.DoubleValue
5.411

@<SCITEGIC>MOL_PROPERTY
W
SciTegic.value.DoubleValue
-2.279

@<SCITEGIC>MOL_PROPERTY
W(PB)
SciTegic.value.DoubleValue
-4.300

@<SCITEGIC>MOL_PROPERTY
W(SA)
SciTegic.value.DoubleValue
2.021

@<SCITEGIC>MOL_PROPERTY
Valence
SciTegic.value.DoubleValue
11.909

@<SCITEGIC>MOL_PROPERTY
Coulomb
SciTegic.value.DoubleValue
-8.733

@<SCITEGIC>MOL_PROPERTY
VdW
SciTegic.value.DoubleValue
2.236

@<SCITEGIC>MOL_PROPERTY
VdW6
SciTegic.value.DoubleValue
-8.936

@<SCITEGIC>MOL_PROPERTY
VdW12
SciTegic.value.DoubleValue
11.172

@<SCITEGIC>MOL_PROPERTY
Bond
SciTegic.value.DoubleValue
0.223

@<SCITEGIC>MOL_PROPERTY
Angle
SciTegic.value.DoubleValue
2.457

@<SCITEGIC>MOL_PROPERTY
Pdih
SciTegic.value.DoubleValue
9.228

@<SCITEGIC>MOL_PROPERTY
Idih
SciTegic.value.DoubleValue
0.000

@<SCITEGIC>MOL_PROPERTY
Tether
SciTegic.value.DoubleValue
0.000

@<TRIPOS>MOLECULE
guest-5_confgen4.mol2 : confsearch ligand conformer 139
          22          22           1
SMALL
USER_CHARGES
 
@<TRIPOS>ATOM
       1    C1      20.171531   21.164694   23.246458 C.3        1 MOL1        -0.1685
       2    H1      20.040143   22.218492   23.527771 H          1 MOL1         0.0832
       3    H2      21.187984   20.890838   23.560318 H          1 MOL1         0.0832
       4    C2      20.021138   21.057196   21.710912 C.3        1 MOL1        -0.1685
       5    H3      18.954952   21.011107   21.450344 H          1 MOL1         0.0832
       6    H4      20.395021   21.982526   21.251591 H          1 MOL1         0.0832
       7    C3      20.766742   19.867057   21.060092 C.3        1 MOL1        -0.1685
       8    H5      21.814828   20.150494   20.892482 H          1 MOL1         0.0832
       9    H6      20.339685   19.700332   20.061672 H          1 MOL1         0.0832
      10    C4      20.747932   18.532601   21.845594 C.3        1 MOL1        -0.1761
      11    H7      21.004757   17.726756   21.144791 H          1 MOL1         0.0832
      12    H8      21.550975   18.543448   22.593858 H          1 MOL1         0.0832
      13    C5      19.407160   18.204202   22.539915 C.3        1 MOL1         0.1218
      14    H9      18.574103   18.576440   21.926788 H          1 MOL1         0.0789
      15    C6      19.313408   18.804116   23.961284 C.3        1 MOL1        -0.1761
      16    H10     18.471484   18.333748   24.486689 H          1 MOL1         0.0832
      17    H11     20.213187   18.538263   24.531201 H          1 MOL1         0.0832
      18    C7      19.113496   20.337360   24.015269 C.3        1 MOL1        -0.1685
      19    H12     18.111714   20.587260   23.639893 H          1 MOL1         0.0832
      20    H13     19.124113   20.647830   25.068969 H          1 MOL1         0.0832
      21    O1      19.297530   16.791731   22.654445 O.3        1 MOL1        -0.5509
      22    H14     20.054190   16.499136   23.203092 H          1 MOL1         0.3779
@<TRIPOS>BOND
    1     1     2    1
    2     1     3    1
    3     1     4    1
    4     4     5    1
    5     4     6    1
    6     4     7    1
    7     7     8    1
    8     7     9    1
    9     7    10    1
   10    10    11    1
   11    10    12    1
   12    10    13    1
   13    13    14    1
   14    13    15    1
   15    15    16    1
   16    15    17    1
   17     1    18    1
   18    15    18    1
   19    18    19    1
   20    18    20    1
   21    13    21    1
   22    21    22    1
@<TRIPOS>SUBSTRUCTURE
       1 MOL1            1 RESIDUE      1      MOL     
@<SCITEGIC>MOL_PROPERTY
VConf Rank
SciTegic.value.IntegerValue
139

@<SCITEGIC>MOL_PROPERTY
Conf_Id
SciTegic.value.IntegerValue
76

@<SCITEGIC>MOL_PROPERTY
Delta U+W
SciTegic.value.DoubleValue
-3.175

@<SCITEGIC>MOL_PROPERTY
U+W
SciTegic.value.DoubleValue
3.248

@<SCITEGIC>MOL_PROPERTY
Grad RMS
SciTegic.value.DoubleValue
0.000000

@<SCITEGIC>MOL_PROPERTY
U
SciTegic.value.DoubleValue
5.336

@<SCITEGIC>MOL_PROPERTY
W
SciTegic.value.DoubleValue
-2.088

@<SCITEGIC>MOL_PROPERTY
W(PB)
SciTegic.value.DoubleValue
-4.098

@<SCITEGIC>MOL_PROPERTY
W(SA)
SciTegic.value.DoubleValue
2.010

@<SCITEGIC>MOL_PROPERTY
Valence
SciTegic.value.DoubleValue
12.390

@<SCITEGIC>MOL_PROPERTY
Coulomb
SciTegic.value.DoubleValue
-9.270

@<SCITEGIC>MOL_PROPERTY
VdW
SciTegic.value.DoubleValue
2.216

@<SCITEGIC>MOL_PROPERTY
VdW6
SciTegic.value.DoubleValue
-8.967

@<SCITEGIC>MOL_PROPERTY
VdW12
SciTegic.value.DoubleValue
11.183

@<SCITEGIC>MOL_PROPERTY
Bond
SciTegic.value.DoubleValue
0.218

@<SCITEGIC>MOL_PROPERTY
Angle
SciTegic.value.DoubleValue
2.426

@<SCITEGIC>MOL_PROPERTY
Pdih
SciTegic.value.DoubleValue
9.745

@<SCITEGIC>MOL_PROPERTY
Idih
SciTegic.value.DoubleValue
0.000

@<SCITEGIC>MOL_PROPERTY
Tether
SciTegic.value.DoubleValue
0.000

@<TRIPOS>MOLECULE
guest-5_confgen4.mol2 : confsearch ligand conformer 140
          22          22           1
SMALL
USER_CHARGES
 
@<TRIPOS>ATOM
       1    C1      21.082543   18.003838   22.413533 C.3        1 MOL1        -0.1685
       2    H1      22.176489   17.909638   22.448023 H          1 MOL1         0.0832
       3    H2      20.700054   16.984520   22.266877 H          1 MOL1         0.0832
       4    C2      20.709272   18.861672   21.180867 C.3        1 MOL1        -0.1685
       5    H3      21.460993   19.650393   21.041892 H          1 MOL1         0.0832
       6    H4      20.783783   18.224691   20.288966 H          1 MOL1         0.0832
       7    C3      19.300010   19.496721   21.228139 C.3        1 MOL1        -0.1685
       8    H5      18.575732   18.813438   21.692231 H          1 MOL1         0.0832
       9    H6      18.958679   19.646640   20.195033 H          1 MOL1         0.0832
      10    C4      19.286927   20.876305   21.934296 C.3        1 MOL1        -0.1761
      11    H7      20.068008   21.512177   21.498300 H          1 MOL1         0.0832
      12    H8      18.337228   21.377645   21.705944 H          1 MOL1         0.0832
      13    C5      19.459078   20.859085   23.470254 C.3        1 MOL1         0.1218
      14    H9      19.609804   21.902109   23.784071 H          1 MOL1         0.0789
      15    C6      20.672744   20.047311   23.988449 C.3        1 MOL1        -0.1761
      16    H10     21.596534   20.428551   23.534415 H          1 MOL1         0.0832
      17    H11     20.768294   20.244875   25.063915 H          1 MOL1         0.0832
      18    C7      20.575268   18.513094   23.783772 C.3        1 MOL1        -0.1685
      19    H12     21.161723   18.013976   24.566953 H          1 MOL1         0.0832
      20    H13     19.541142   18.177528   23.936808 H          1 MOL1         0.0832
      21    O1      18.259149   20.383834   24.072191 O.3        1 MOL1        -0.5509
      22    H14     18.428765   20.339770   25.035297 H          1 MOL1         0.3779
@<TRIPOS>BOND
    1     1     2    1
    2     1     3    1
    3     1     4    1
    4     4     5    1
    5     4     6    1
    6     4     7    1
    7     7     8    1
    8     7     9    1
    9     7    10    1
   10    10    11    1
   11    10    12    1
   12    10    13    1
   13    13    14    1
   14    13    15    1
   15    15    16    1
   16    15    17    1
   17     1    18    1
   18    15    18    1
   19    18    19    1
   20    18    20    1
   21    13    21    1
   22    21    22    1
@<TRIPOS>SUBSTRUCTURE
       1 MOL1            1 RESIDUE      1      MOL     
@<SCITEGIC>MOL_PROPERTY
VConf Rank
SciTegic.value.IntegerValue
140

@<SCITEGIC>MOL_PROPERTY
Conf_Id
SciTegic.value.IntegerValue
95

@<SCITEGIC>MOL_PROPERTY
Delta U+W
SciTegic.value.DoubleValue
-2.289

@<SCITEGIC>MOL_PROPERTY
U+W
SciTegic.value.DoubleValue
4.134

@<SCITEGIC>MOL_PROPERTY
Grad RMS
SciTegic.value.DoubleValue
0.000000

@<SCITEGIC>MOL_PROPERTY
U
SciTegic.value.DoubleValue
6.373

@<SCITEGIC>MOL_PROPERTY
W
SciTegic.value.DoubleValue
-2.240

@<SCITEGIC>MOL_PROPERTY
W(PB)
SciTegic.value.DoubleValue
-4.254

@<SCITEGIC>MOL_PROPERTY
W(SA)
SciTegic.value.DoubleValue
2.015

@<SCITEGIC>MOL_PROPERTY
Valence
SciTegic.value.DoubleValue
12.093

@<SCITEGIC>MOL_PROPERTY
Coulomb
SciTegic.value.DoubleValue
-8.058

@<SCITEGIC>MOL_PROPERTY
VdW
SciTegic.value.DoubleValue
2.339

@<SCITEGIC>MOL_PROPERTY
VdW6
SciTegic.value.DoubleValue
-9.683

@<SCITEGIC>MOL_PROPERTY
VdW12
SciTegic.value.DoubleValue
12.022

@<SCITEGIC>MOL_PROPERTY
Bond
SciTegic.value.DoubleValue
0.268

@<SCITEGIC>MOL_PROPERTY
Angle
SciTegic.value.DoubleValue
3.005

@<SCITEGIC>MOL_PROPERTY
Pdih
SciTegic.value.DoubleValue
8.820

@<SCITEGIC>MOL_PROPERTY
Idih
SciTegic.value.DoubleValue
0.000

@<SCITEGIC>MOL_PROPERTY
Tether
SciTegic.value.DoubleValue
0.000

@<TRIPOS>MOLECULE
guest-5_confgen4.mol2 : confsearch ligand conformer 141
          22          22           1
SMALL
USER_CHARGES
 
@<TRIPOS>ATOM
       1    C1      19.965712   19.893031   24.598213 C.3        1 MOL1        -0.1685
       2    H1      19.248629   19.463620   25.311061 H          1 MOL1         0.0832
       3    H2      20.667150   20.485339   25.201492 H          1 MOL1         0.0832
       4    C2      19.195551   20.842302   23.649496 C.3        1 MOL1        -0.1685
       5    H3      18.199308   20.426953   23.445870 H          1 MOL1         0.0832
       6    H4      19.016544   21.784875   24.184577 H          1 MOL1         0.0832
       7    C3      19.907605   21.151615   22.312028 C.3        1 MOL1        -0.1685
       8    H5      20.992567   21.245223   22.456648 H          1 MOL1         0.0832
       9    H6      19.560966   22.132971   21.961019 H          1 MOL1         0.0832
      10    C4      19.582922   20.113563   21.208245 C.3        1 MOL1        -0.1761
      11    H7      18.494884   19.981043   21.149013 H          1 MOL1         0.0832
      12    H8      19.878573   20.530258   20.236680 H          1 MOL1         0.0832
      13    C5      20.242597   18.724138   21.363369 C.3        1 MOL1         0.1218
      14    H9      19.778938   18.066926   20.613573 H          1 MOL1         0.0789
      15    C6      20.041193   18.050807   22.744092 C.3        1 MOL1        -0.1761
      16    H10     18.969682   17.951112   22.959530 H          1 MOL1         0.0832
      17    H11     20.427633   17.026503   22.664755 H          1 MOL1         0.0832
      18    C7      20.760859   18.746853   23.928592 C.3        1 MOL1        -0.1685
      19    H12     20.981323   17.994880   24.698105 H          1 MOL1         0.0832
      20    H13     21.739515   19.122521   23.601905 H          1 MOL1         0.0832
      21    O1      21.631966   18.825191   21.066158 O.3        1 MOL1        -0.5509
      22    H14     21.702217   19.270092   20.197070 H          1 MOL1         0.3779
@<TRIPOS>BOND
    1     1     2    1
    2     1     3    1
    3     1     4    1
    4     4     5    1
    5     4     6    1
    6     4     7    1
    7     7     8    1
    8     7     9    1
    9     7    10    1
   10    10    11    1
   11    10    12    1
   12    10    13    1
   13    13    14    1
   14    13    15    1
   15    15    16    1
   16    15    17    1
   17     1    18    1
   18    15    18    1
   19    18    19    1
   20    18    20    1
   21    13    21    1
   22    21    22    1
@<TRIPOS>SUBSTRUCTURE
       1 MOL1            1 RESIDUE      1      MOL     
@<SCITEGIC>MOL_PROPERTY
VConf Rank
SciTegic.value.IntegerValue
141

@<SCITEGIC>MOL_PROPERTY
Conf_Id
SciTegic.value.IntegerValue
41

@<SCITEGIC>MOL_PROPERTY
Delta U+W
SciTegic.value.DoubleValue
-2.114

@<SCITEGIC>MOL_PROPERTY
U+W
SciTegic.value.DoubleValue
4.310

@<SCITEGIC>MOL_PROPERTY
Grad RMS
SciTegic.value.DoubleValue
0.000000

@<SCITEGIC>MOL_PROPERTY
U
SciTegic.value.DoubleValue
6.598

@<SCITEGIC>MOL_PROPERTY
W
SciTegic.value.DoubleValue
-2.289

@<SCITEGIC>MOL_PROPERTY
W(PB)
SciTegic.value.DoubleValue
-4.294

@<SCITEGIC>MOL_PROPERTY
W(SA)
SciTegic.value.DoubleValue
2.005

@<SCITEGIC>MOL_PROPERTY
Valence
SciTegic.value.DoubleValue
12.082

@<SCITEGIC>MOL_PROPERTY
Coulomb
SciTegic.value.DoubleValue
-7.801

@<SCITEGIC>MOL_PROPERTY
VdW
SciTegic.value.DoubleValue
2.317

@<SCITEGIC>MOL_PROPERTY
VdW6
SciTegic.value.DoubleValue
-9.658

@<SCITEGIC>MOL_PROPERTY
VdW12
SciTegic.value.DoubleValue
11.975

@<SCITEGIC>MOL_PROPERTY
Bond
SciTegic.value.DoubleValue
0.267

@<SCITEGIC>MOL_PROPERTY
Angle
SciTegic.value.DoubleValue
3.051

@<SCITEGIC>MOL_PROPERTY
Pdih
SciTegic.value.DoubleValue
8.764

@<SCITEGIC>MOL_PROPERTY
Idih
SciTegic.value.DoubleValue
0.000

@<SCITEGIC>MOL_PROPERTY
Tether
SciTegic.value.DoubleValue
0.000

@<TRIPOS>MOLECULE
guest-5_confgen4.mol2 : confsearch ligand conformer 142
          22          22           1
SMALL
USER_CHARGES
 
@<TRIPOS>ATOM
       1    C1      21.352180   19.954733   21.715793 C.3        1 MOL1        -0.1685
       2    H1      22.161168   20.462381   21.173223 H          1 MOL1         0.0832
       3    H2      21.538618   18.877217   21.609138 H          1 MOL1         0.0832
       4    C2      20.015034   20.346675   21.048103 C.3        1 MOL1        -0.1685
       5    H3      19.817440   21.413511   21.219565 H          1 MOL1         0.0832
       6    H4      20.118640   20.230599   19.960743 H          1 MOL1         0.0832
       7    C3      18.797065   19.516461   21.509099 C.3        1 MOL1        -0.1685
       8    H5      18.900607   18.484471   21.148314 H          1 MOL1         0.0832
       9    H6      17.905842   19.915517   21.006503 H          1 MOL1         0.0832
      10    C4      18.537185   19.520279   23.039992 C.3        1 MOL1        -0.1761
      11    H7      18.510673   20.551258   23.415007 H          1 MOL1         0.0832
      12    H8      17.529590   19.118370   23.206736 H          1 MOL1         0.0832
      13    C5      19.513845   18.673786   23.896508 C.3        1 MOL1         0.1218
      14    H9      19.026082   18.518254   24.869737 H          1 MOL1         0.0789
      15    C6      20.886736   19.327231   24.201987 C.3        1 MOL1        -0.1761
      16    H10     20.819878   19.812144   25.184561 H          1 MOL1         0.0832
      17    H11     21.640175   18.537557   24.321212 H          1 MOL1         0.0832
      18    C7      21.425010   20.378068   23.199538 C.3        1 MOL1        -0.1685
      19    H12     20.898655   21.331771   23.340301 H          1 MOL1         0.0832
      20    H13     22.473849   20.580182   23.455986 H          1 MOL1         0.0832
      21    O1      19.713431   17.392712   23.304955 O.3        1 MOL1        -0.5509
      22    H14     20.302185   16.892455   23.905805 H          1 MOL1         0.3779
@<TRIPOS>BOND
    1     1     2    1
    2     1     3    1
    3     1     4    1
    4     4     5    1
    5     4     6    1
    6     4     7    1
    7     7     8    1
    8     7     9    1
    9     7    10    1
   10    10    11    1
   11    10    12    1
   12    10    13    1
   13    13    14    1
   14    13    15    1
   15    15    16    1
   16    15    17    1
   17     1    18    1
   18    15    18    1
   19    18    19    1
   20    18    20    1
   21    13    21    1
   22    21    22    1
@<TRIPOS>SUBSTRUCTURE
       1 MOL1            1 RESIDUE      1      MOL     
@<SCITEGIC>MOL_PROPERTY
VConf Rank
SciTegic.value.IntegerValue
142

@<SCITEGIC>MOL_PROPERTY
Conf_Id
SciTegic.value.IntegerValue
104

@<SCITEGIC>MOL_PROPERTY
Delta U+W
SciTegic.value.DoubleValue
-1.172

@<SCITEGIC>MOL_PROPERTY
U+W
SciTegic.value.DoubleValue
5.252

@<SCITEGIC>MOL_PROPERTY
Grad RMS
SciTegic.value.DoubleValue
0.000000

@<SCITEGIC>MOL_PROPERTY
U
SciTegic.value.DoubleValue
7.482

@<SCITEGIC>MOL_PROPERTY
W
SciTegic.value.DoubleValue
-2.230

@<SCITEGIC>MOL_PROPERTY
W(PB)
SciTegic.value.DoubleValue
-4.220

@<SCITEGIC>MOL_PROPERTY
W(SA)
SciTegic.value.DoubleValue
1.990

@<SCITEGIC>MOL_PROPERTY
Valence
SciTegic.value.DoubleValue
12.309

@<SCITEGIC>MOL_PROPERTY
Coulomb
SciTegic.value.DoubleValue
-7.084

@<SCITEGIC>MOL_PROPERTY
VdW
SciTegic.value.DoubleValue
2.258

@<SCITEGIC>MOL_PROPERTY
VdW6
SciTegic.value.DoubleValue
-9.770

@<SCITEGIC>MOL_PROPERTY
VdW12
SciTegic.value.DoubleValue
12.028

@<SCITEGIC>MOL_PROPERTY
Bond
SciTegic.value.DoubleValue
0.284

@<SCITEGIC>MOL_PROPERTY
Angle
SciTegic.value.DoubleValue
3.491

@<SCITEGIC>MOL_PROPERTY
Pdih
SciTegic.value.DoubleValue
8.535

@<SCITEGIC>MOL_PROPERTY
Idih
SciTegic.value.DoubleValue
0.000

@<SCITEGIC>MOL_PROPERTY
Tether
SciTegic.value.DoubleValue
0.000

@<TRIPOS>MOLECULE
guest-5_confgen4.mol2 : confsearch ligand conformer 143
          22          22           1
SMALL
USER_CHARGES
 
@<TRIPOS>ATOM
       1    C1      20.320071   21.212452   22.657242 C.3        1 MOL1        -0.1685
       2    H1      20.013792   21.332475   23.705226 H          1 MOL1         0.0832
       3    H2      20.561579   22.221327   22.295603 H          1 MOL1         0.0832
       4    C2      19.154032   20.669478   21.799910 C.3        1 MOL1        -0.1685
       5    H3      18.476165   21.501239   21.563440 H          1 MOL1         0.0832
       6    H4      19.541833   20.334520   20.828957 H          1 MOL1         0.0832
       7    C3      18.310478   19.543440   22.449625 C.3        1 MOL1        -0.1685
       8    H5      17.848560   18.949024   21.649240 H          1 MOL1         0.0832
       9    H6      17.472627   20.004827   22.990048 H          1 MOL1         0.0832
      10    C4      19.036283   18.590566   23.437775 C.3        1 MOL1        -0.1761
      11    H7      19.138817   19.091318   24.409212 H          1 MOL1         0.0832
      12    H8      18.378776   17.731689   23.624904 H          1 MOL1         0.0832
      13    C5      20.420225   18.051623   23.008559 C.3        1 MOL1         0.1218
      14    H9      20.605300   17.132086   23.582213 H          1 MOL1         0.0789
      15    C6      21.573138   19.025431   23.341364 C.3        1 MOL1        -0.1761
      16    H10     21.543876   19.250977   24.415298 H          1 MOL1         0.0832
      17    H11     22.522980   18.500515   23.175505 H          1 MOL1         0.0832
      18    C7      21.604381   20.356287   22.549761 C.3        1 MOL1        -0.1685
      19    H12     22.447895   20.951289   22.925484 H          1 MOL1         0.0832
      20    H13     21.831675   20.156346   21.493902 H          1 MOL1         0.0832
      21    O1      20.426681   17.740698   21.623838 O.3        1 MOL1        -0.5509
      22    H14     20.174546   18.579915   21.189754 H          1 MOL1         0.3779
@<TRIPOS>BOND
    1     1     2    1
    2     1     3    1
    3     1     4    1
    4     4     5    1
    5     4     6    1
    6     4     7    1
    7     7     8    1
    8     7     9    1
    9     7    10    1
   10    10    11    1
   11    10    12    1
   12    10    13    1
   13    13    14    1
   14    13    15    1
   15    15    16    1
   16    15    17    1
   17     1    18    1
   18    15    18    1
   19    18    19    1
   20    18    20    1
   21    13    21    1
   22    21    22    1
@<TRIPOS>SUBSTRUCTURE
       1 MOL1            1 RESIDUE      1      MOL     
@<SCITEGIC>MOL_PROPERTY
VConf Rank
SciTegic.value.IntegerValue
143

@<SCITEGIC>MOL_PROPERTY
Conf_Id
SciTegic.value.IntegerValue
99

@<SCITEGIC>MOL_PROPERTY
Delta U+W
SciTegic.value.DoubleValue
-3.852

@<SCITEGIC>MOL_PROPERTY
U+W
SciTegic.value.DoubleValue
2.572

@<SCITEGIC>MOL_PROPERTY
Grad RMS
SciTegic.value.DoubleValue
0.000000

@<SCITEGIC>MOL_PROPERTY
U
SciTegic.value.DoubleValue
3.922

@<SCITEGIC>MOL_PROPERTY
W
SciTegic.value.DoubleValue
-1.350

@<SCITEGIC>MOL_PROPERTY
W(PB)
SciTegic.value.DoubleValue
-3.345

@<SCITEGIC>MOL_PROPERTY
W(SA)
SciTegic.value.DoubleValue
1.995

@<SCITEGIC>MOL_PROPERTY
Valence
SciTegic.value.DoubleValue
12.571

@<SCITEGIC>MOL_PROPERTY
Coulomb
SciTegic.value.DoubleValue
-10.581

@<SCITEGIC>MOL_PROPERTY
VdW
SciTegic.value.DoubleValue
1.932

@<SCITEGIC>MOL_PROPERTY
VdW6
SciTegic.value.DoubleValue
-10.483

@<SCITEGIC>MOL_PROPERTY
VdW12
SciTegic.value.DoubleValue
12.415

@<SCITEGIC>MOL_PROPERTY
Bond
SciTegic.value.DoubleValue
0.268

@<SCITEGIC>MOL_PROPERTY
Angle
SciTegic.value.DoubleValue
3.728

@<SCITEGIC>MOL_PROPERTY
Pdih
SciTegic.value.DoubleValue
8.575

@<SCITEGIC>MOL_PROPERTY
Idih
SciTegic.value.DoubleValue
0.000

@<SCITEGIC>MOL_PROPERTY
Tether
SciTegic.value.DoubleValue
0.000

@<TRIPOS>MOLECULE
guest-5_confgen4.mol2 : confsearch ligand conformer 144
          22          22           1
SMALL
USER_CHARGES
 
@<TRIPOS>ATOM
       1    C1      19.610289   19.630090   21.076232 C.3        1 MOL1        -0.1685
       2    H1      18.842173   19.646359   20.290723 H          1 MOL1         0.0832
       3    H2      20.566536   19.674632   20.538028 H          1 MOL1         0.0832
       4    C2      19.485803   18.277887   21.837745 C.3        1 MOL1        -0.1685
       5    H3      18.663914   17.708814   21.381737 H          1 MOL1         0.0832
       6    H4      20.381597   17.665175   21.669844 H          1 MOL1         0.0832
       7    C3      19.203522   18.378589   23.358576 C.3        1 MOL1        -0.1685
       8    H5      18.947685   17.377111   23.730484 H          1 MOL1         0.0832
       9    H6      18.298663   18.975168   23.528557 H          1 MOL1         0.0832
      10    C4      20.365507   18.927477   24.232271 C.3        1 MOL1        -0.1761
      11    H7      19.938867   19.314166   25.166717 H          1 MOL1         0.0832
      12    H8      21.002611   18.084469   24.531326 H          1 MOL1         0.0832
      13    C5      21.285850   20.015695   23.626540 C.3        1 MOL1         0.1218
      14    H9      21.881738   20.426803   24.453995 H          1 MOL1         0.0789
      15    C6      20.576190   21.211868   22.945586 C.3        1 MOL1        -0.1761
      16    H10     20.174650   21.868688   23.727951 H          1 MOL1         0.0832
      17    H11     21.345794   21.805945   22.434921 H          1 MOL1         0.0832
      18    C7      19.436800   20.910268   21.932854 C.3        1 MOL1        -0.1685
      19    H12     18.474015   20.876977   22.457739 H          1 MOL1         0.0832
      20    H13     19.352421   21.771272   21.255893 H          1 MOL1         0.0832
      21    O1      22.193011   19.417969   22.713838 O.3        1 MOL1        -0.5509
      22    H14     21.618234   19.070480   22.002631 H          1 MOL1         0.3779
@<TRIPOS>BOND
    1     1     2    1
    2     1     3    1
    3     1     4    1
    4     4     5    1
    5     4     6    1
    6     4     7    1
    7     7     8    1
    8     7     9    1
    9     7    10    1
   10    10    11    1
   11    10    12    1
   12    10    13    1
   13    13    14    1
   14    13    15    1
   15    15    16    1
   16    15    17    1
   17     1    18    1
   18    15    18    1
   19    18    19    1
   20    18    20    1
   21    13    21    1
   22    21    22    1
@<TRIPOS>SUBSTRUCTURE
       1 MOL1            1 RESIDUE      1      MOL     
@<SCITEGIC>MOL_PROPERTY
VConf Rank
SciTegic.value.IntegerValue
144

@<SCITEGIC>MOL_PROPERTY
Conf_Id
SciTegic.value.IntegerValue
98

@<SCITEGIC>MOL_PROPERTY
Delta U+W
SciTegic.value.DoubleValue
0.930

@<SCITEGIC>MOL_PROPERTY
U+W
SciTegic.value.DoubleValue
7.353

@<SCITEGIC>MOL_PROPERTY
Grad RMS
SciTegic.value.DoubleValue
0.000000

@<SCITEGIC>MOL_PROPERTY
U
SciTegic.value.DoubleValue
8.455

@<SCITEGIC>MOL_PROPERTY
W
SciTegic.value.DoubleValue
-1.102

@<SCITEGIC>MOL_PROPERTY
W(PB)
SciTegic.value.DoubleValue
-3.101

@<SCITEGIC>MOL_PROPERTY
W(SA)
SciTegic.value.DoubleValue
2.000

@<SCITEGIC>MOL_PROPERTY
Valence
SciTegic.value.DoubleValue
15.601

@<SCITEGIC>MOL_PROPERTY
Coulomb
SciTegic.value.DoubleValue
-10.573

@<SCITEGIC>MOL_PROPERTY
VdW
SciTegic.value.DoubleValue
3.427

@<SCITEGIC>MOL_PROPERTY
VdW6
SciTegic.value.DoubleValue
-11.360

@<SCITEGIC>MOL_PROPERTY
VdW12
SciTegic.value.DoubleValue
14.787

@<SCITEGIC>MOL_PROPERTY
Bond
SciTegic.value.DoubleValue
0.471

@<SCITEGIC>MOL_PROPERTY
Angle
SciTegic.value.DoubleValue
5.445

@<SCITEGIC>MOL_PROPERTY
Pdih
SciTegic.value.DoubleValue
9.685

@<SCITEGIC>MOL_PROPERTY
Idih
SciTegic.value.DoubleValue
0.000

@<SCITEGIC>MOL_PROPERTY
Tether
SciTegic.value.DoubleValue
0.000

@<TRIPOS>MOLECULE
guest-5_confgen4.mol2 : confsearch ligand conformer 145
          22          22           1
SMALL
USER_CHARGES
 
@<TRIPOS>ATOM
       1    C1      19.171501   19.275952   21.180252 C.3        1 MOL1        -0.1685
       2    H1      19.104329   18.217806   21.464145 H          1 MOL1         0.0832
       3    H2      18.617217   19.353293   20.235001 H          1 MOL1         0.0832
       4    C2      20.651113   19.654825   20.916883 C.3        1 MOL1        -0.1685
       5    H3      21.020503   19.005070   20.111747 H          1 MOL1         0.0832
       6    H4      20.703786   20.678131   20.521037 H          1 MOL1         0.0832
       7    C3      21.618857   19.524520   22.125658 C.3        1 MOL1        -0.1685
       8    H5      21.837009   20.516625   22.541773 H          1 MOL1         0.0832
       9    H6      22.584223   19.155681   21.753285 H          1 MOL1         0.0832
      10    C4      21.131235   18.583965   23.259365 C.3        1 MOL1        -0.1761
      11    H7      20.854163   17.613998   22.828063 H          1 MOL1         0.0832
      12    H8      21.983290   18.366468   23.917457 H          1 MOL1         0.0832
      13    C5      19.950084   19.115534   24.123186 C.3        1 MOL1         0.1218
      14    H9      19.217457   18.302853   24.232151 H          1 MOL1         0.0789
      15    C6      19.212290   20.359945   23.568785 C.3        1 MOL1        -0.1761
      16    H10     18.489733   20.708035   24.318319 H          1 MOL1         0.0832
      17    H11     19.921913   21.187670   23.450902 H          1 MOL1         0.0832
      18    C7      18.448435   20.141446   22.238901 C.3        1 MOL1        -0.1685
      19    H12     17.479108   19.673486   22.458521 H          1 MOL1         0.0832
      20    H13     18.217339   21.123625   21.804630 H          1 MOL1         0.0832
      21    O1      20.451010   19.455535   25.411071 O.3        1 MOL1        -0.5509
      22    H14     19.680657   19.731341   25.950205 H          1 MOL1         0.3779
@<TRIPOS>BOND
    1     1     2    1
    2     1     3    1
    3     1     4    1
    4     4     5    1
    5     4     6    1
    6     4     7    1
    7     7     8    1
    8     7     9    1
    9     7    10    1
   10    10    11    1
   11    10    12    1
   12    10    13    1
   13    13    14    1
   14    13    15    1
   15    15    16    1
   16    15    17    1
   17     1    18    1
   18    15    18    1
   19    18    19    1
   20    18    20    1
   21    13    21    1
   22    21    22    1
@<TRIPOS>SUBSTRUCTURE
       1 MOL1            1 RESIDUE      1      MOL     
@<SCITEGIC>MOL_PROPERTY
VConf Rank
SciTegic.value.IntegerValue
145

@<SCITEGIC>MOL_PROPERTY
Conf_Id
SciTegic.value.IntegerValue
141

@<SCITEGIC>MOL_PROPERTY
Delta U+W
SciTegic.value.DoubleValue
0.000

@<SCITEGIC>MOL_PROPERTY
U+W
SciTegic.value.DoubleValue
6.423

@<SCITEGIC>MOL_PROPERTY
Grad RMS
SciTegic.value.DoubleValue
0.000000

@<SCITEGIC>MOL_PROPERTY
U
SciTegic.value.DoubleValue
8.781

@<SCITEGIC>MOL_PROPERTY
W
SciTegic.value.DoubleValue
-2.358

@<SCITEGIC>MOL_PROPERTY
W(PB)
SciTegic.value.DoubleValue
-4.373

@<SCITEGIC>MOL_PROPERTY
W(SA)
SciTegic.value.DoubleValue
2.015

@<SCITEGIC>MOL_PROPERTY
Valence
SciTegic.value.DoubleValue
13.328

@<SCITEGIC>MOL_PROPERTY
Coulomb
SciTegic.value.DoubleValue
-8.387

@<SCITEGIC>MOL_PROPERTY
VdW
SciTegic.value.DoubleValue
3.840

@<SCITEGIC>MOL_PROPERTY
VdW6
SciTegic.value.DoubleValue
-9.744

@<SCITEGIC>MOL_PROPERTY
VdW12
SciTegic.value.DoubleValue
13.584

@<SCITEGIC>MOL_PROPERTY
Bond
SciTegic.value.DoubleValue
0.436

@<SCITEGIC>MOL_PROPERTY
Angle
SciTegic.value.DoubleValue
3.478

@<SCITEGIC>MOL_PROPERTY
Pdih
SciTegic.value.DoubleValue
9.415

@<SCITEGIC>MOL_PROPERTY
Idih
SciTegic.value.DoubleValue
0.000

@<SCITEGIC>MOL_PROPERTY
Tether
SciTegic.value.DoubleValue
0.000

@<TRIPOS>MOLECULE
guest-5_confgen4.mol2 : confsearch ligand conformer 146
          22          22           1
SMALL
USER_CHARGES
 
@<TRIPOS>ATOM
       1    C1      19.656391   20.721660   23.968847 C.3        1 MOL1        -0.1685
       2    H1      20.711529   21.026065   23.943733 H          1 MOL1         0.0832
       3    H2      19.176300   21.352742   24.729210 H          1 MOL1         0.0832
       4    C2      19.515813   19.248973   24.423914 C.3        1 MOL1        -0.1685
       5    H3      19.801675   19.181029   25.482460 H          1 MOL1         0.0832
       6    H4      18.458481   18.953888   24.380861 H          1 MOL1         0.0832
       7    C3      20.363892   18.229476   23.629108 C.3        1 MOL1        -0.1685
       8    H5      20.125965   17.223162   23.999984 H          1 MOL1         0.0832
       9    H6      21.427946   18.387206   23.852427 H          1 MOL1         0.0832
      10    C4      20.149566   18.254566   22.095937 C.3        1 MOL1        -0.1761
      11    H7      20.617325   17.352255   21.680579 H          1 MOL1         0.0832
      12    H8      19.081361   18.184265   21.853050 H          1 MOL1         0.0832
      13    C5      20.776206   19.498153   21.426282 C.3        1 MOL1         0.1218
      14    H9      21.678862   19.774460   21.989940 H          1 MOL1         0.0789
      15    C6      19.846308   20.731372   21.364984 C.3        1 MOL1        -0.1761
      16    H10     20.475384   21.611688   21.180169 H          1 MOL1         0.0832
      17    H11     19.185619   20.645253   20.491953 H          1 MOL1         0.0832
      18    C7      18.967898   21.000744   22.612333 C.3        1 MOL1        -0.1685
      19    H12     18.650166   22.051942   22.583106 H          1 MOL1         0.0832
      20    H13     18.042895   20.412134   22.544379 H          1 MOL1         0.0832
      21    O1      21.151217   19.162359   20.095933 O.3        1 MOL1        -0.5509
      22    H14     21.798259   18.429116   20.161583 H          1 MOL1         0.3779
@<TRIPOS>BOND
    1     1     2    1
    2     1     3    1
    3     1     4    1
    4     4     5    1
    5     4     6    1
    6     4     7    1
    7     7     8    1
    8     7     9    1
    9     7    10    1
   10    10    11    1
   11    10    12    1
   12    10    13    1
   13    13    14    1
   14    13    15    1
   15    15    16    1
   16    15    17    1
   17     1    18    1
   18    15    18    1
   19    18    19    1
   20    18    20    1
   21    13    21    1
   22    21    22    1
@<TRIPOS>SUBSTRUCTURE
       1 MOL1            1 RESIDUE      1      MOL     
@<SCITEGIC>MOL_PROPERTY
VConf Rank
SciTegic.value.IntegerValue
146

@<SCITEGIC>MOL_PROPERTY
Conf_Id
SciTegic.value.IntegerValue
144

@<SCITEGIC>MOL_PROPERTY
Delta U+W
SciTegic.value.DoubleValue
-3.291

@<SCITEGIC>MOL_PROPERTY
U+W
SciTegic.value.DoubleValue
3.132

@<SCITEGIC>MOL_PROPERTY
Grad RMS
SciTegic.value.DoubleValue
0.000000

@<SCITEGIC>MOL_PROPERTY
U
SciTegic.value.DoubleValue
5.411

@<SCITEGIC>MOL_PROPERTY
W
SciTegic.value.DoubleValue
-2.279

@<SCITEGIC>MOL_PROPERTY
W(PB)
SciTegic.value.DoubleValue
-4.300

@<SCITEGIC>MOL_PROPERTY
W(SA)
SciTegic.value.DoubleValue
2.021

@<SCITEGIC>MOL_PROPERTY
Valence
SciTegic.value.DoubleValue
11.909

@<SCITEGIC>MOL_PROPERTY
Coulomb
SciTegic.value.DoubleValue
-8.733

@<SCITEGIC>MOL_PROPERTY
VdW
SciTegic.value.DoubleValue
2.236

@<SCITEGIC>MOL_PROPERTY
VdW6
SciTegic.value.DoubleValue
-8.936

@<SCITEGIC>MOL_PROPERTY
VdW12
SciTegic.value.DoubleValue
11.172

@<SCITEGIC>MOL_PROPERTY
Bond
SciTegic.value.DoubleValue
0.223

@<SCITEGIC>MOL_PROPERTY
Angle
SciTegic.value.DoubleValue
2.457

@<SCITEGIC>MOL_PROPERTY
Pdih
SciTegic.value.DoubleValue
9.228

@<SCITEGIC>MOL_PROPERTY
Idih
SciTegic.value.DoubleValue
0.000

@<SCITEGIC>MOL_PROPERTY
Tether
SciTegic.value.DoubleValue
0.000

@<TRIPOS>MOLECULE
guest-5_confgen4.mol2 : confsearch ligand conformer 147
          22          22           1
SMALL
USER_CHARGES
 
@<TRIPOS>ATOM
       1    C1      19.228319   20.986171   23.318792 C.3        1 MOL1        -0.1685
       2    H1      18.806622   21.743888   23.993275 H          1 MOL1         0.0832
       3    H2      19.198246   21.424892   22.312163 H          1 MOL1         0.0832
       4    C2      18.335508   19.725708   23.397502 C.3        1 MOL1        -0.1685
       5    H3      18.622068   19.128896   24.274129 H          1 MOL1         0.0832
       6    H4      17.297795   20.036177   23.581237 H          1 MOL1         0.0832
       7    C3      18.348897   18.831921   22.133822 C.3        1 MOL1        -0.1685
       8    H5      17.635850   19.236351   21.402441 H          1 MOL1         0.0832
       9    H6      17.962271   17.841590   22.410921 H          1 MOL1         0.0832
      10    C4      19.716978   18.659743   21.428946 C.3        1 MOL1        -0.1761
      11    H7      19.653295   17.772762   20.784215 H          1 MOL1         0.0832
      12    H8      19.883206   19.508062   20.752472 H          1 MOL1         0.0832
      13    C5      20.926799   18.520055   22.379953 C.3        1 MOL1         0.1218
      14    H9      20.621958   17.978001   23.286440 H          1 MOL1         0.0789
      15    C6      21.533079   19.886651   22.772150 C.3        1 MOL1        -0.1761
      16    H10     22.518140   19.716819   23.227060 H          1 MOL1         0.0832
      17    H11     21.715404   20.479944   21.866696 H          1 MOL1         0.0832
      18    C7      20.686779   20.720655   23.763073 C.3        1 MOL1        -0.1685
      19    H12     20.685063   20.227666   24.744848 H          1 MOL1         0.0832
      20    H13     21.188179   21.686343   23.914179 H          1 MOL1         0.0832
      21    O1      21.934401   17.770749   21.714003 O.3        1 MOL1        -0.5509
      22    H14     22.177217   18.282581   20.915111 H          1 MOL1         0.3779
@<TRIPOS>BOND
    1     1     2    1
    2     1     3    1
    3     1     4    1
    4     4     5    1
    5     4     6    1
    6     4     7    1
    7     7     8    1
    8     7     9    1
    9     7    10    1
   10    10    11    1
   11    10    12    1
   12    10    13    1
   13    13    14    1
   14    13    15    1
   15    15    16    1
   16    15    17    1
   17     1    18    1
   18    15    18    1
   19    18    19    1
   20    18    20    1
   21    13    21    1
   22    21    22    1
@<TRIPOS>SUBSTRUCTURE
       1 MOL1            1 RESIDUE      1      MOL     
@<SCITEGIC>MOL_PROPERTY
VConf Rank
SciTegic.value.IntegerValue
147

@<SCITEGIC>MOL_PROPERTY
Conf_Id
SciTegic.value.IntegerValue
76

@<SCITEGIC>MOL_PROPERTY
Delta U+W
SciTegic.value.DoubleValue
-3.175

@<SCITEGIC>MOL_PROPERTY
U+W
SciTegic.value.DoubleValue
3.248

@<SCITEGIC>MOL_PROPERTY
Grad RMS
SciTegic.value.DoubleValue
0.000000

@<SCITEGIC>MOL_PROPERTY
U
SciTegic.value.DoubleValue
5.336

@<SCITEGIC>MOL_PROPERTY
W
SciTegic.value.DoubleValue
-2.088

@<SCITEGIC>MOL_PROPERTY
W(PB)
SciTegic.value.DoubleValue
-4.098

@<SCITEGIC>MOL_PROPERTY
W(SA)
SciTegic.value.DoubleValue
2.010

@<SCITEGIC>MOL_PROPERTY
Valence
SciTegic.value.DoubleValue
12.390

@<SCITEGIC>MOL_PROPERTY
Coulomb
SciTegic.value.DoubleValue
-9.270

@<SCITEGIC>MOL_PROPERTY
VdW
SciTegic.value.DoubleValue
2.216

@<SCITEGIC>MOL_PROPERTY
VdW6
SciTegic.value.DoubleValue
-8.967

@<SCITEGIC>MOL_PROPERTY
VdW12
SciTegic.value.DoubleValue
11.183

@<SCITEGIC>MOL_PROPERTY
Bond
SciTegic.value.DoubleValue
0.218

@<SCITEGIC>MOL_PROPERTY
Angle
SciTegic.value.DoubleValue
2.426

@<SCITEGIC>MOL_PROPERTY
Pdih
SciTegic.value.DoubleValue
9.745

@<SCITEGIC>MOL_PROPERTY
Idih
SciTegic.value.DoubleValue
0.000

@<SCITEGIC>MOL_PROPERTY
Tether
SciTegic.value.DoubleValue
0.000

@<TRIPOS>MOLECULE
guest-5_confgen4.mol2 : confsearch ligand conformer 148
          22          22           1
SMALL
USER_CHARGES
 
@<TRIPOS>ATOM
       1    C1      18.403830   19.159049   21.921923 C.3        1 MOL1        -0.1685
       2    H1      18.215522   18.721887   20.931867 H          1 MOL1         0.0832
       3    H2      17.420217   19.238650   22.404607 H          1 MOL1         0.0832
       4    C2      18.980525   20.580977   21.721379 C.3        1 MOL1        -0.1685
       5    H3      19.638562   20.589033   20.841947 H          1 MOL1         0.0832
       6    H4      18.148034   21.252679   21.471261 H          1 MOL1         0.0832
       7    C3      19.741536   21.156089   22.938610 C.3        1 MOL1        -0.1685
       8    H5      19.259088   20.860140   23.880148 H          1 MOL1         0.0832
       9    H6      19.677153   22.251627   22.894520 H          1 MOL1         0.0832
      10    C4      21.242913   20.771488   22.943989 C.3        1 MOL1        -0.1761
      11    H7      21.680619   21.012696   21.966879 H          1 MOL1         0.0832
      12    H8      21.765725   21.411153   23.667114 H          1 MOL1         0.0832
      13    C5      21.569854   19.300052   23.286161 C.3        1 MOL1         0.1218
      14    H9      22.637899   19.153929   23.069306 H          1 MOL1         0.0789
      15    C6      20.789308   18.243243   22.464948 C.3        1 MOL1        -0.1761
      16    H10     20.962735   18.402799   21.392874 H          1 MOL1         0.0832
      17    H11     21.223410   17.260974   22.691861 H          1 MOL1         0.0832
      18    C7      19.266577   18.178738   22.751913 C.3        1 MOL1        -0.1685
      19    H12     18.910971   17.160006   22.546606 H          1 MOL1         0.0832
      20    H13     19.077370   18.342603   23.820926 H          1 MOL1         0.0832
      21    O1      21.366741   19.085365   24.679243 O.3        1 MOL1        -0.5509
      22    H14     21.533631   18.134631   24.842142 H          1 MOL1         0.3779
@<TRIPOS>BOND
    1     1     2    1
    2     1     3    1
    3     1     4    1
    4     4     5    1
    5     4     6    1
    6     4     7    1
    7     7     8    1
    8     7     9    1
    9     7    10    1
   10    10    11    1
   11    10    12    1
   12    10    13    1
   13    13    14    1
   14    13    15    1
   15    15    16    1
   16    15    17    1
   17     1    18    1
   18    15    18    1
   19    18    19    1
   20    18    20    1
   21    13    21    1
   22    21    22    1
@<TRIPOS>SUBSTRUCTURE
       1 MOL1            1 RESIDUE      1      MOL     
@<SCITEGIC>MOL_PROPERTY
VConf Rank
SciTegic.value.IntegerValue
148

@<SCITEGIC>MOL_PROPERTY
Conf_Id
SciTegic.value.IntegerValue
95

@<SCITEGIC>MOL_PROPERTY
Delta U+W
SciTegic.value.DoubleValue
-2.289

@<SCITEGIC>MOL_PROPERTY
U+W
SciTegic.value.DoubleValue
4.134

@<SCITEGIC>MOL_PROPERTY
Grad RMS
SciTegic.value.DoubleValue
0.000000

@<SCITEGIC>MOL_PROPERTY
U
SciTegic.value.DoubleValue
6.373

@<SCITEGIC>MOL_PROPERTY
W
SciTegic.value.DoubleValue
-2.240

@<SCITEGIC>MOL_PROPERTY
W(PB)
SciTegic.value.DoubleValue
-4.254

@<SCITEGIC>MOL_PROPERTY
W(SA)
SciTegic.value.DoubleValue
2.015

@<SCITEGIC>MOL_PROPERTY
Valence
SciTegic.value.DoubleValue
12.093

@<SCITEGIC>MOL_PROPERTY
Coulomb
SciTegic.value.DoubleValue
-8.058

@<SCITEGIC>MOL_PROPERTY
VdW
SciTegic.value.DoubleValue
2.339

@<SCITEGIC>MOL_PROPERTY
VdW6
SciTegic.value.DoubleValue
-9.683

@<SCITEGIC>MOL_PROPERTY
VdW12
SciTegic.value.DoubleValue
12.022

@<SCITEGIC>MOL_PROPERTY
Bond
SciTegic.value.DoubleValue
0.268

@<SCITEGIC>MOL_PROPERTY
Angle
SciTegic.value.DoubleValue
3.005

@<SCITEGIC>MOL_PROPERTY
Pdih
SciTegic.value.DoubleValue
8.820

@<SCITEGIC>MOL_PROPERTY
Idih
SciTegic.value.DoubleValue
0.000

@<SCITEGIC>MOL_PROPERTY
Tether
SciTegic.value.DoubleValue
0.000

@<TRIPOS>MOLECULE
guest-5_confgen4.mol2 : confsearch ligand conformer 149
          22          22           1
SMALL
USER_CHARGES
 
@<TRIPOS>ATOM
       1    C1      19.732746   18.265900   24.010289 C.3        1 MOL1        -0.1685
       2    H1      18.889164   18.179318   24.708592 H          1 MOL1         0.0832
       3    H2      20.355205   17.377436   24.183401 H          1 MOL1         0.0832
       4    C2      20.545170   19.527840   24.386857 C.3        1 MOL1        -0.1685
       5    H3      19.860055   20.315913   24.727500 H          1 MOL1         0.0832
       6    H4      21.167335   19.283190   25.258555 H          1 MOL1         0.0832
       7    C3      21.451117   20.083442   23.263433 C.3        1 MOL1        -0.1685
       8    H5      21.900405   19.267546   22.680961 H          1 MOL1         0.0832
       9    H6      22.287075   20.618541   23.733826 H          1 MOL1         0.0832
      10    C4      20.711322   21.082799   22.338609 C.3        1 MOL1        -0.1761
      11    H7      20.203066   21.834605   22.956153 H          1 MOL1         0.0832
      12    H8      21.456688   21.640076   21.756497 H          1 MOL1         0.0832
      13    C5      19.684343   20.472299   21.357620 C.3        1 MOL1         0.1218
      14    H9      19.133347   21.312574   20.911032 H          1 MOL1         0.0789
      15    C6      18.634990   19.533409   22.003898 C.3        1 MOL1        -0.1761
      16    H10     18.086951   20.068705   22.789774 H          1 MOL1         0.0832
      17    H11     17.893452   19.294855   21.230566 H          1 MOL1         0.0832
      18    C7      19.197381   18.199280   22.560007 C.3        1 MOL1        -0.1685
      19    H12     18.403155   17.441384   22.528137 H          1 MOL1         0.0832
      20    H13     19.985661   17.820885   21.895889 H          1 MOL1         0.0832
      21    O1      20.374830   19.790436   20.314939 O.3        1 MOL1        -0.5509
      22    H14     21.032876   20.419382   19.954956 H          1 MOL1         0.3779
@<TRIPOS>BOND
    1     1     2    1
    2     1     3    1
    3     1     4    1
    4     4     5    1
    5     4     6    1
    6     4     7    1
    7     7     8    1
    8     7     9    1
    9     7    10    1
   10    10    11    1
   11    10    12    1
   12    10    13    1
   13    13    14    1
   14    13    15    1
   15    15    16    1
   16    15    17    1
   17     1    18    1
   18    15    18    1
   19    18    19    1
   20    18    20    1
   21    13    21    1
   22    21    22    1
@<TRIPOS>SUBSTRUCTURE
       1 MOL1            1 RESIDUE      1      MOL     
@<SCITEGIC>MOL_PROPERTY
VConf Rank
SciTegic.value.IntegerValue
149

@<SCITEGIC>MOL_PROPERTY
Conf_Id
SciTegic.value.IntegerValue
41

@<SCITEGIC>MOL_PROPERTY
Delta U+W
SciTegic.value.DoubleValue
-2.114

@<SCITEGIC>MOL_PROPERTY
U+W
SciTegic.value.DoubleValue
4.310

@<SCITEGIC>MOL_PROPERTY
Grad RMS
SciTegic.value.DoubleValue
0.000000

@<SCITEGIC>MOL_PROPERTY
U
SciTegic.value.DoubleValue
6.598

@<SCITEGIC>MOL_PROPERTY
W
SciTegic.value.DoubleValue
-2.289

@<SCITEGIC>MOL_PROPERTY
W(PB)
SciTegic.value.DoubleValue
-4.294

@<SCITEGIC>MOL_PROPERTY
W(SA)
SciTegic.value.DoubleValue
2.005

@<SCITEGIC>MOL_PROPERTY
Valence
SciTegic.value.DoubleValue
12.082

@<SCITEGIC>MOL_PROPERTY
Coulomb
SciTegic.value.DoubleValue
-7.801

@<SCITEGIC>MOL_PROPERTY
VdW
SciTegic.value.DoubleValue
2.317

@<SCITEGIC>MOL_PROPERTY
VdW6
SciTegic.value.DoubleValue
-9.658

@<SCITEGIC>MOL_PROPERTY
VdW12
SciTegic.value.DoubleValue
11.975

@<SCITEGIC>MOL_PROPERTY
Bond
SciTegic.value.DoubleValue
0.267

@<SCITEGIC>MOL_PROPERTY
Angle
SciTegic.value.DoubleValue
3.051

@<SCITEGIC>MOL_PROPERTY
Pdih
SciTegic.value.DoubleValue
8.764

@<SCITEGIC>MOL_PROPERTY
Idih
SciTegic.value.DoubleValue
0.000

@<SCITEGIC>MOL_PROPERTY
Tether
SciTegic.value.DoubleValue
0.000

@<TRIPOS>MOLECULE
guest-5_confgen4.mol2 : confsearch ligand conformer 150
          22          22           1
SMALL
USER_CHARGES
 
@<TRIPOS>ATOM
       1    C1      19.659780   20.809266   21.725690 C.3        1 MOL1        -0.1685
       2    H1      19.177843   21.491654   21.012504 H          1 MOL1         0.0832
       3    H2      20.327934   21.427940   22.340497 H          1 MOL1         0.0832
       4    C2      20.467935   19.770827   20.915805 C.3        1 MOL1        -0.1685
       5    H3      19.778642   19.123230   20.357168 H          1 MOL1         0.0832
       6    H4      21.062312   20.301269   20.159559 H          1 MOL1         0.0832
       7    C3      21.424625   18.899384   21.758749 C.3        1 MOL1        -0.1685
       8    H5      22.240989   19.523127   22.146544 H          1 MOL1         0.0832
       9    H6      21.902590   18.174285   21.086509 H          1 MOL1         0.0832
      10    C4      20.754186   18.118867   22.921715 C.3        1 MOL1        -0.1761
      11    H7      19.889794   17.555353   22.548170 H          1 MOL1         0.0832
      12    H8      21.470590   17.364744   23.271927 H          1 MOL1         0.0832
      13    C5      20.339497   18.962075   24.155030 C.3        1 MOL1         0.1218
      14    H9      20.190102   18.255466   24.984284 H          1 MOL1         0.0789
      15    C6      19.012712   19.753407   24.018728 C.3        1 MOL1        -0.1761
      16    H10     18.210316   19.147744   24.459631 H          1 MOL1         0.0832
      17    H11     19.068481   20.655405   24.642235 H          1 MOL1         0.0832
      18    C7      18.559193   20.162468   22.595391 C.3        1 MOL1        -0.1685
      19    H12     18.136617   19.292869   22.074201 H          1 MOL1         0.0832
      20    H13     17.729633   20.875015   22.699246 H          1 MOL1         0.0832
      21    O1      21.390637   19.848878   24.528667 O.3        1 MOL1        -0.5509
      22    H14     21.089478   20.322357   25.330558 H          1 MOL1         0.3779
@<TRIPOS>BOND
    1     1     2    1
    2     1     3    1
    3     1     4    1
    4     4     5    1
    5     4     6    1
    6     4     7    1
    7     7     8    1
    8     7     9    1
    9     7    10    1
   10    10    11    1
   11    10    12    1
   12    10    13    1
   13    13    14    1
   14    13    15    1
   15    15    16    1
   16    15    17    1
   17     1    18    1
   18    15    18    1
   19    18    19    1
   20    18    20    1
   21    13    21    1
   22    21    22    1
@<TRIPOS>SUBSTRUCTURE
       1 MOL1            1 RESIDUE      1      MOL     
@<SCITEGIC>MOL_PROPERTY
VConf Rank
SciTegic.value.IntegerValue
150

@<SCITEGIC>MOL_PROPERTY
Conf_Id
SciTegic.value.IntegerValue
104

@<SCITEGIC>MOL_PROPERTY
Delta U+W
SciTegic.value.DoubleValue
-1.172

@<SCITEGIC>MOL_PROPERTY
U+W
SciTegic.value.DoubleValue
5.252

@<SCITEGIC>MOL_PROPERTY
Grad RMS
SciTegic.value.DoubleValue
0.000000

@<SCITEGIC>MOL_PROPERTY
U
SciTegic.value.DoubleValue
7.482

@<SCITEGIC>MOL_PROPERTY
W
SciTegic.value.DoubleValue
-2.230

@<SCITEGIC>MOL_PROPERTY
W(PB)
SciTegic.value.DoubleValue
-4.220

@<SCITEGIC>MOL_PROPERTY
W(SA)
SciTegic.value.DoubleValue
1.990

@<SCITEGIC>MOL_PROPERTY
Valence
SciTegic.value.DoubleValue
12.309

@<SCITEGIC>MOL_PROPERTY
Coulomb
SciTegic.value.DoubleValue
-7.084

@<SCITEGIC>MOL_PROPERTY
VdW
SciTegic.value.DoubleValue
2.258

@<SCITEGIC>MOL_PROPERTY
VdW6
SciTegic.value.DoubleValue
-9.770

@<SCITEGIC>MOL_PROPERTY
VdW12
SciTegic.value.DoubleValue
12.028

@<SCITEGIC>MOL_PROPERTY
Bond
SciTegic.value.DoubleValue
0.284

@<SCITEGIC>MOL_PROPERTY
Angle
SciTegic.value.DoubleValue
3.491

@<SCITEGIC>MOL_PROPERTY
Pdih
SciTegic.value.DoubleValue
8.535

@<SCITEGIC>MOL_PROPERTY
Idih
SciTegic.value.DoubleValue
0.000

@<SCITEGIC>MOL_PROPERTY
Tether
SciTegic.value.DoubleValue
0.000

@<TRIPOS>MOLECULE
guest-5_confgen4.mol2 : confsearch ligand conformer 151
          22          22           1
SMALL
USER_CHARGES
 
@<TRIPOS>ATOM
       1    C1      19.291320   18.235119   22.139867 C.3        1 MOL1        -0.1685
       2    H1      20.211616   17.635557   22.131795 H          1 MOL1         0.0832
       3    H2      18.494748   17.570823   21.777757 H          1 MOL1         0.0832
       4    C2      19.398247   19.424051   21.157783 C.3        1 MOL1        -0.1685
       5    H3      19.213662   19.054977   20.139470 H          1 MOL1         0.0832
       6    H4      18.583368   20.132906   21.354849 H          1 MOL1         0.0832
       7    C3      20.757208   20.168932   21.150570 C.3        1 MOL1        -0.1685
       8    H5      20.588554   21.196800   20.800774 H          1 MOL1         0.0832
       9    H6      21.403217   19.705748   20.392241 H          1 MOL1         0.0832
      10    C4      21.554069   20.208451   22.482731 C.3        1 MOL1        -0.1761
      11    H7      22.067060   19.248125   22.622624 H          1 MOL1         0.0832
      12    H8      22.356234   20.950140   22.375812 H          1 MOL1         0.0832
      13    C5      20.761574   20.539797   23.768088 C.3        1 MOL1         0.1218
      14    H9      21.482572   20.912427   24.509835 H          1 MOL1         0.0789
      15    C6      20.081277   19.299496   24.390274 C.3        1 MOL1        -0.1761
      16    H10     20.846431   18.534239   24.574615 H          1 MOL1         0.0832
      17    H11     19.699030   19.579637   25.380553 H          1 MOL1         0.0832
      18    C7      18.923412   18.666348   23.579556 C.3        1 MOL1        -0.1685
      19    H12     18.575312   17.779721   24.126759 H          1 MOL1         0.0832
      20    H13     18.066590   19.353187   23.555361 H          1 MOL1         0.0832
      21    O1      19.798021   21.550144   23.513265 O.3        1 MOL1        -0.5509
      22    H14     19.250186   21.180897   22.792280 H          1 MOL1         0.3779
@<TRIPOS>BOND
    1     1     2    1
    2     1     3    1
    3     1     4    1
    4     4     5    1
    5     4     6    1
    6     4     7    1
    7     7     8    1
    8     7     9    1
    9     7    10    1
   10    10    11    1
   11    10    12    1
   12    10    13    1
   13    13    14    1
   14    13    15    1
   15    15    16    1
   16    15    17    1
   17     1    18    1
   18    15    18    1
   19    18    19    1
   20    18    20    1
   21    13    21    1
   22    21    22    1
@<TRIPOS>SUBSTRUCTURE
       1 MOL1            1 RESIDUE      1      MOL     
@<SCITEGIC>MOL_PROPERTY
VConf Rank
SciTegic.value.IntegerValue
151

@<SCITEGIC>MOL_PROPERTY
Conf_Id
SciTegic.value.IntegerValue
99

@<SCITEGIC>MOL_PROPERTY
Delta U+W
SciTegic.value.DoubleValue
-3.852

@<SCITEGIC>MOL_PROPERTY
U+W
SciTegic.value.DoubleValue
2.572

@<SCITEGIC>MOL_PROPERTY
Grad RMS
SciTegic.value.DoubleValue
0.000000

@<SCITEGIC>MOL_PROPERTY
U
SciTegic.value.DoubleValue
3.922

@<SCITEGIC>MOL_PROPERTY
W
SciTegic.value.DoubleValue
-1.350

@<SCITEGIC>MOL_PROPERTY
W(PB)
SciTegic.value.DoubleValue
-3.345

@<SCITEGIC>MOL_PROPERTY
W(SA)
SciTegic.value.DoubleValue
1.995

@<SCITEGIC>MOL_PROPERTY
Valence
SciTegic.value.DoubleValue
12.571

@<SCITEGIC>MOL_PROPERTY
Coulomb
SciTegic.value.DoubleValue
-10.581

@<SCITEGIC>MOL_PROPERTY
VdW
SciTegic.value.DoubleValue
1.932

@<SCITEGIC>MOL_PROPERTY
VdW6
SciTegic.value.DoubleValue
-10.483

@<SCITEGIC>MOL_PROPERTY
VdW12
SciTegic.value.DoubleValue
12.415

@<SCITEGIC>MOL_PROPERTY
Bond
SciTegic.value.DoubleValue
0.268

@<SCITEGIC>MOL_PROPERTY
Angle
SciTegic.value.DoubleValue
3.728

@<SCITEGIC>MOL_PROPERTY
Pdih
SciTegic.value.DoubleValue
8.575

@<SCITEGIC>MOL_PROPERTY
Idih
SciTegic.value.DoubleValue
0.000

@<SCITEGIC>MOL_PROPERTY
Tether
SciTegic.value.DoubleValue
0.000

@<TRIPOS>MOLECULE
guest-5_confgen4.mol2 : confsearch ligand conformer 152
          22          22           1
SMALL
USER_CHARGES
 
@<TRIPOS>ATOM
       1    C1      19.723087   20.598882   21.395117 C.3        1 MOL1        -0.1685
       2    H1      19.358320   20.775015   20.373739 H          1 MOL1         0.0832
       3    H2      19.975083   21.595509   21.781496 H          1 MOL1         0.0832
       4    C2      21.005087   19.720720   21.299414 C.3        1 MOL1        -0.1685
       5    H3      21.195300   19.516895   20.236604 H          1 MOL1         0.0832
       6    H4      21.880249   20.290411   21.639409 H          1 MOL1         0.0832
       7    C3      20.952514   18.359579   22.039197 C.3        1 MOL1        -0.1685
       8    H5      21.825189   17.765891   21.734732 H          1 MOL1         0.0832
       9    H6      20.089267   17.780532   21.688371 H          1 MOL1         0.0832
      10    C4      20.942405   18.427896   23.591634 C.3        1 MOL1        -0.1761
      11    H7      20.517511   17.490630   23.973392 H          1 MOL1         0.0832
      12    H8      21.982113   18.440136   23.944978 H          1 MOL1         0.0832
      13    C5      20.206173   19.610822   24.267509 C.3        1 MOL1         0.1218
      14    H9      20.116161   19.363049   25.334879 H          1 MOL1         0.0789
      15    C6      18.776730   19.911826   23.753472 C.3        1 MOL1        -0.1761
      16    H10     18.095819   19.150091   24.154545 H          1 MOL1         0.0832
      17    H11     18.453998   20.857793   24.208432 H          1 MOL1         0.0832
      18    C7      18.552351   20.003825   22.218549 C.3        1 MOL1        -0.1685
      19    H12     18.286311   19.015611   21.823297 H          1 MOL1         0.0832
      20    H13     17.659238   20.619675   22.045910 H          1 MOL1         0.0832
      21    O1      21.001773   20.782033   24.175157 O.3        1 MOL1        -0.5509
      22    H14     21.051192   20.959080   23.214353 H          1 MOL1         0.3779
@<TRIPOS>BOND
    1     1     2    1
    2     1     3    1
    3     1     4    1
    4     4     5    1
    5     4     6    1
    6     4     7    1
    7     7     8    1
    8     7     9    1
    9     7    10    1
   10    10    11    1
   11    10    12    1
   12    10    13    1
   13    13    14    1
   14    13    15    1
   15    15    16    1
   16    15    17    1
   17     1    18    1
   18    15    18    1
   19    18    19    1
   20    18    20    1
   21    13    21    1
   22    21    22    1
@<TRIPOS>SUBSTRUCTURE
       1 MOL1            1 RESIDUE      1      MOL     
@<SCITEGIC>MOL_PROPERTY
VConf Rank
SciTegic.value.IntegerValue
152

@<SCITEGIC>MOL_PROPERTY
Conf_Id
SciTegic.value.IntegerValue
98

@<SCITEGIC>MOL_PROPERTY
Delta U+W
SciTegic.value.DoubleValue
0.930

@<SCITEGIC>MOL_PROPERTY
U+W
SciTegic.value.DoubleValue
7.353

@<SCITEGIC>MOL_PROPERTY
Grad RMS
SciTegic.value.DoubleValue
0.000000

@<SCITEGIC>MOL_PROPERTY
U
SciTegic.value.DoubleValue
8.455

@<SCITEGIC>MOL_PROPERTY
W
SciTegic.value.DoubleValue
-1.102

@<SCITEGIC>MOL_PROPERTY
W(PB)
SciTegic.value.DoubleValue
-3.101

@<SCITEGIC>MOL_PROPERTY
W(SA)
SciTegic.value.DoubleValue
2.000

@<SCITEGIC>MOL_PROPERTY
Valence
SciTegic.value.DoubleValue
15.601

@<SCITEGIC>MOL_PROPERTY
Coulomb
SciTegic.value.DoubleValue
-10.573

@<SCITEGIC>MOL_PROPERTY
VdW
SciTegic.value.DoubleValue
3.427

@<SCITEGIC>MOL_PROPERTY
VdW6
SciTegic.value.DoubleValue
-11.360

@<SCITEGIC>MOL_PROPERTY
VdW12
SciTegic.value.DoubleValue
14.787

@<SCITEGIC>MOL_PROPERTY
Bond
SciTegic.value.DoubleValue
0.471

@<SCITEGIC>MOL_PROPERTY
Angle
SciTegic.value.DoubleValue
5.445

@<SCITEGIC>MOL_PROPERTY
Pdih
SciTegic.value.DoubleValue
9.685

@<SCITEGIC>MOL_PROPERTY
Idih
SciTegic.value.DoubleValue
0.000

@<SCITEGIC>MOL_PROPERTY
Tether
SciTegic.value.DoubleValue
0.000

@<TRIPOS>MOLECULE
guest-5_confgen4.mol2 : confsearch ligand conformer 153
          22          22           1
SMALL
USER_CHARGES
 
@<TRIPOS>ATOM
       1    C1      20.482845   18.511540   23.955371 C.3        1 MOL1        -0.1685
       2    H1      21.453275   18.404181   23.453851 H          1 MOL1         0.0832
       3    H2      20.582346   17.947394   24.892681 H          1 MOL1         0.0832
       4    C2      19.373825   17.851067   23.097462 C.3        1 MOL1        -0.1685
       5    H3      19.639265   16.792444   22.972025 H          1 MOL1         0.0832
       6    H4      18.426591   17.856292   23.653648 H          1 MOL1         0.0832
       7    C3      19.141412   18.461534   21.687511 C.3        1 MOL1        -0.1685
       8    H5      18.236962   19.083604   21.691151 H          1 MOL1         0.0832
       9    H6      18.917592   17.641399   20.991869 H          1 MOL1         0.0832
      10    C4      20.331109   19.281898   21.122415 C.3        1 MOL1        -0.1761
      11    H7      21.244844   18.677452   21.180384 H          1 MOL1         0.0832
      12    H8      20.163709   19.436936   20.048019 H          1 MOL1         0.0832
      13    C5      20.587126   20.661567   21.796832 C.3        1 MOL1         0.1218
      14    H9      21.665890   20.748750   21.991086 H          1 MOL1         0.0789
      15    C6      19.834685   20.914840   23.127224 C.3        1 MOL1        -0.1761
      16    H10     19.999166   21.955313   23.436127 H          1 MOL1         0.0832
      17    H11     18.753727   20.834263   22.961017 H          1 MOL1         0.0832
      18    C7      20.245258   19.998952   24.307219 C.3        1 MOL1        -0.1685
      19    H12     21.164760   20.393852   24.760412 H          1 MOL1         0.0832
      20    H13     19.472855   20.066264   25.085379 H          1 MOL1         0.0832
      21    O1      20.201839   21.686112   20.887416 O.3        1 MOL1        -0.5509
      22    H14     20.426176   22.540149   21.312236 H          1 MOL1         0.3779
@<TRIPOS>BOND
    1     1     2    1
    2     1     3    1
    3     1     4    1
    4     4     5    1
    5     4     6    1
    6     4     7    1
    7     7     8    1
    8     7     9    1
    9     7    10    1
   10    10    11    1
   11    10    12    1
   12    10    13    1
   13    13    14    1
   14    13    15    1
   15    15    16    1
   16    15    17    1
   17     1    18    1
   18    15    18    1
   19    18    19    1
   20    18    20    1
   21    13    21    1
   22    21    22    1
@<TRIPOS>SUBSTRUCTURE
       1 MOL1            1 RESIDUE      1      MOL     
@<SCITEGIC>MOL_PROPERTY
VConf Rank
SciTegic.value.IntegerValue
153

@<SCITEGIC>MOL_PROPERTY
Conf_Id
SciTegic.value.IntegerValue
141

@<SCITEGIC>MOL_PROPERTY
Delta U+W
SciTegic.value.DoubleValue
0.000

@<SCITEGIC>MOL_PROPERTY
U+W
SciTegic.value.DoubleValue
6.423

@<SCITEGIC>MOL_PROPERTY
Grad RMS
SciTegic.value.DoubleValue
0.000000

@<SCITEGIC>MOL_PROPERTY
U
SciTegic.value.DoubleValue
8.781

@<SCITEGIC>MOL_PROPERTY
W
SciTegic.value.DoubleValue
-2.358

@<SCITEGIC>MOL_PROPERTY
W(PB)
SciTegic.value.DoubleValue
-4.373

@<SCITEGIC>MOL_PROPERTY
W(SA)
SciTegic.value.DoubleValue
2.015

@<SCITEGIC>MOL_PROPERTY
Valence
SciTegic.value.DoubleValue
13.328

@<SCITEGIC>MOL_PROPERTY
Coulomb
SciTegic.value.DoubleValue
-8.387

@<SCITEGIC>MOL_PROPERTY
VdW
SciTegic.value.DoubleValue
3.840

@<SCITEGIC>MOL_PROPERTY
VdW6
SciTegic.value.DoubleValue
-9.744

@<SCITEGIC>MOL_PROPERTY
VdW12
SciTegic.value.DoubleValue
13.584

@<SCITEGIC>MOL_PROPERTY
Bond
SciTegic.value.DoubleValue
0.436

@<SCITEGIC>MOL_PROPERTY
Angle
SciTegic.value.DoubleValue
3.478

@<SCITEGIC>MOL_PROPERTY
Pdih
SciTegic.value.DoubleValue
9.415

@<SCITEGIC>MOL_PROPERTY
Idih
SciTegic.value.DoubleValue
0.000

@<SCITEGIC>MOL_PROPERTY
Tether
SciTegic.value.DoubleValue
0.000

@<TRIPOS>MOLECULE
guest-5_confgen4.mol2 : confsearch ligand conformer 154
          22          22           1
SMALL
USER_CHARGES
 
@<TRIPOS>ATOM
       1    C1      21.346063   19.180705   23.668678 C.3        1 MOL1        -0.1685
       2    H1      20.773414   19.517441   24.543487 H          1 MOL1         0.0832
       3    H2      22.293371   18.785052   24.059794 H          1 MOL1         0.0832
       4    C2      21.682875   20.369500   22.736488 C.3        1 MOL1        -0.1685
       5    H3      22.403703   21.021920   23.247966 H          1 MOL1         0.0832
       6    H4      22.200648   19.995895   21.842503 H          1 MOL1         0.0832
       7    C3      20.474353   21.231593   22.304514 C.3        1 MOL1        -0.1685
       8    H5      20.831955   21.992837   21.597793 H          1 MOL1         0.0832
       9    H6      20.092060   21.785210   23.173030 H          1 MOL1         0.0832
      10    C4      19.315288   20.447673   21.641780 C.3        1 MOL1        -0.1761
      11    H7      18.640358   21.180333   21.180083 H          1 MOL1         0.0832
      12    H8      19.690622   19.819901   20.823230 H          1 MOL1         0.0832
      13    C5      18.515490   19.596661   22.653576 C.3        1 MOL1         0.1218
      14    H9      18.514709   20.121286   23.619811 H          1 MOL1         0.0789
      15    C6      19.072310   18.171925   22.875783 C.3        1 MOL1        -0.1761
      16    H10     18.645942   17.792154   23.813244 H          1 MOL1         0.0832
      17    H11     18.698411   17.508184   22.084736 H          1 MOL1         0.0832
      18    C7      20.613880   18.031214   22.937498 C.3        1 MOL1        -0.1685
      19    H12     20.848280   17.082587   23.439481 H          1 MOL1         0.0832
      20    H13     21.014817   17.931987   21.919602 H          1 MOL1         0.0832
      21    O1      17.174331   19.479097   22.194567 O.3        1 MOL1        -0.5509
      22    H14     16.816177   20.389355   22.133129 H          1 MOL1         0.3779
@<TRIPOS>BOND
    1     1     2    1
    2     1     3    1
    3     1     4    1
    4     4     5    1
    5     4     6    1
    6     4     7    1
    7     7     8    1
    8     7     9    1
    9     7    10    1
   10    10    11    1
   11    10    12    1
   12    10    13    1
   13    13    14    1
   14    13    15    1
   15    15    16    1
   16    15    17    1
   17     1    18    1
   18    15    18    1
   19    18    19    1
   20    18    20    1
   21    13    21    1
   22    21    22    1
@<TRIPOS>SUBSTRUCTURE
       1 MOL1            1 RESIDUE      1      MOL     
@<SCITEGIC>MOL_PROPERTY
VConf Rank
SciTegic.value.IntegerValue
154

@<SCITEGIC>MOL_PROPERTY
Conf_Id
SciTegic.value.IntegerValue
144

@<SCITEGIC>MOL_PROPERTY
Delta U+W
SciTegic.value.DoubleValue
-3.291

@<SCITEGIC>MOL_PROPERTY
U+W
SciTegic.value.DoubleValue
3.132

@<SCITEGIC>MOL_PROPERTY
Grad RMS
SciTegic.value.DoubleValue
0.000000

@<SCITEGIC>MOL_PROPERTY
U
SciTegic.value.DoubleValue
5.411

@<SCITEGIC>MOL_PROPERTY
W
SciTegic.value.DoubleValue
-2.279

@<SCITEGIC>MOL_PROPERTY
W(PB)
SciTegic.value.DoubleValue
-4.300

@<SCITEGIC>MOL_PROPERTY
W(SA)
SciTegic.value.DoubleValue
2.021

@<SCITEGIC>MOL_PROPERTY
Valence
SciTegic.value.DoubleValue
11.909

@<SCITEGIC>MOL_PROPERTY
Coulomb
SciTegic.value.DoubleValue
-8.733

@<SCITEGIC>MOL_PROPERTY
VdW
SciTegic.value.DoubleValue
2.236

@<SCITEGIC>MOL_PROPERTY
VdW6
SciTegic.value.DoubleValue
-8.936

@<SCITEGIC>MOL_PROPERTY
VdW12
SciTegic.value.DoubleValue
11.172

@<SCITEGIC>MOL_PROPERTY
Bond
SciTegic.value.DoubleValue
0.223

@<SCITEGIC>MOL_PROPERTY
Angle
SciTegic.value.DoubleValue
2.457

@<SCITEGIC>MOL_PROPERTY
Pdih
SciTegic.value.DoubleValue
9.228

@<SCITEGIC>MOL_PROPERTY
Idih
SciTegic.value.DoubleValue
0.000

@<SCITEGIC>MOL_PROPERTY
Tether
SciTegic.value.DoubleValue
0.000

@<TRIPOS>MOLECULE
guest-5_confgen4.mol2 : confsearch ligand conformer 155
          22          22           1
SMALL
USER_CHARGES
 
@<TRIPOS>ATOM
       1    C1      21.223216   20.586494   22.116823 C.3        1 MOL1        -0.1685
       2    H1      22.186059   20.986489   21.770662 H          1 MOL1         0.0832
       3    H2      20.540522   21.445146   22.174528 H          1 MOL1         0.0832
       4    C2      21.440084   19.959983   23.514151 C.3        1 MOL1        -0.1685
       5    H3      21.840591   18.943360   23.400815 H          1 MOL1         0.0832
       6    H4      22.221606   20.525604   24.039788 H          1 MOL1         0.0832
       7    C3      20.185484   19.925914   24.420098 C.3        1 MOL1        -0.1685
       8    H5      20.080346   20.897650   24.921686 H          1 MOL1         0.0832
       9    H6      20.361295   19.194566   25.220872 H          1 MOL1         0.0832
      10    C4      18.843111   19.596005   23.722003 C.3        1 MOL1        -0.1761
      11    H7      18.130178   19.282006   24.496342 H          1 MOL1         0.0832
      12    H8      18.426694   20.514698   23.288996 H          1 MOL1         0.0832
      13    C5      18.927946   18.508351   22.627743 C.3        1 MOL1         0.1218
      14    H9      19.682210   17.760090   22.909986 H          1 MOL1         0.0789
      15    C6      19.270702   19.091498   21.237982 C.3        1 MOL1        -0.1761
      16    H10     19.067992   18.326949   20.476074 H          1 MOL1         0.0832
      17    H11     18.595797   19.928122   21.015160 H          1 MOL1         0.0832
      18    C7      20.734737   19.561175   21.065585 C.3        1 MOL1        -0.1685
      19    H12     21.400459   18.687274   21.071540 H          1 MOL1         0.0832
      20    H13     20.836422   20.007828   20.067111 H          1 MOL1         0.0832
      21    O1      17.661411   17.870313   22.532842 O.3        1 MOL1        -0.5509
      22    H14     17.019212   18.566114   22.282639 H          1 MOL1         0.3779
@<TRIPOS>BOND
    1     1     2    1
    2     1     3    1
    3     1     4    1
    4     4     5    1
    5     4     6    1
    6     4     7    1
    7     7     8    1
    8     7     9    1
    9     7    10    1
   10    10    11    1
   11    10    12    1
   12    10    13    1
   13    13    14    1
   14    13    15    1
   15    15    16    1
   16    15    17    1
   17     1    18    1
   18    15    18    1
   19    18    19    1
   20    18    20    1
   21    13    21    1
   22    21    22    1
@<TRIPOS>SUBSTRUCTURE
       1 MOL1            1 RESIDUE      1      MOL     
@<SCITEGIC>MOL_PROPERTY
VConf Rank
SciTegic.value.IntegerValue
155

@<SCITEGIC>MOL_PROPERTY
Conf_Id
SciTegic.value.IntegerValue
76

@<SCITEGIC>MOL_PROPERTY
Delta U+W
SciTegic.value.DoubleValue
-3.175

@<SCITEGIC>MOL_PROPERTY
U+W
SciTegic.value.DoubleValue
3.248

@<SCITEGIC>MOL_PROPERTY
Grad RMS
SciTegic.value.DoubleValue
0.000000

@<SCITEGIC>MOL_PROPERTY
U
SciTegic.value.DoubleValue
5.336

@<SCITEGIC>MOL_PROPERTY
W
SciTegic.value.DoubleValue
-2.088

@<SCITEGIC>MOL_PROPERTY
W(PB)
SciTegic.value.DoubleValue
-4.098

@<SCITEGIC>MOL_PROPERTY
W(SA)
SciTegic.value.DoubleValue
2.010

@<SCITEGIC>MOL_PROPERTY
Valence
SciTegic.value.DoubleValue
12.390

@<SCITEGIC>MOL_PROPERTY
Coulomb
SciTegic.value.DoubleValue
-9.270

@<SCITEGIC>MOL_PROPERTY
VdW
SciTegic.value.DoubleValue
2.216

@<SCITEGIC>MOL_PROPERTY
VdW6
SciTegic.value.DoubleValue
-8.967

@<SCITEGIC>MOL_PROPERTY
VdW12
SciTegic.value.DoubleValue
11.183

@<SCITEGIC>MOL_PROPERTY
Bond
SciTegic.value.DoubleValue
0.218

@<SCITEGIC>MOL_PROPERTY
Angle
SciTegic.value.DoubleValue
2.426

@<SCITEGIC>MOL_PROPERTY
Pdih
SciTegic.value.DoubleValue
9.745

@<SCITEGIC>MOL_PROPERTY
Idih
SciTegic.value.DoubleValue
0.000

@<SCITEGIC>MOL_PROPERTY
Tether
SciTegic.value.DoubleValue
0.000

@<TRIPOS>MOLECULE
guest-5_confgen4.mol2 : confsearch ligand conformer 156
          22          22           1
SMALL
USER_CHARGES
 
@<TRIPOS>ATOM
       1    C1      19.818002   20.570620   24.246016 C.3        1 MOL1        -0.1685
       2    H1      20.580754   20.854222   24.983959 H          1 MOL1         0.0832
       3    H2      18.893815   21.071558   24.565007 H          1 MOL1         0.0832
       4    C2      19.611913   19.039079   24.327164 C.3        1 MOL1        -0.1685
       5    H3      20.574697   18.549712   24.527276 H          1 MOL1         0.0832
       6    H4      18.986650   18.826825   25.205104 H          1 MOL1         0.0832
       7    C3      18.959337   18.399662   23.079433 C.3        1 MOL1        -0.1685
       8    H5      18.191118   19.060257   22.654828 H          1 MOL1         0.0832
       9    H6      18.435412   17.488370   23.397773 H          1 MOL1         0.0832
      10    C4      19.996116   17.995434   22.000651 C.3        1 MOL1        -0.1761
      11    H7      20.788423   17.396880   22.468087 H          1 MOL1         0.0832
      12    H8      19.508353   17.326787   21.279255 H          1 MOL1         0.0832
      13    C5      20.647532   19.153779   21.211353 C.3        1 MOL1         0.1218
      14    H9      21.473029   18.717046   20.630909 H          1 MOL1         0.0789
      15    C6      21.250382   20.286237   22.080030 C.3        1 MOL1        -0.1761
      16    H10     21.993711   19.869036   22.771611 H          1 MOL1         0.0832
      17    H11     21.809748   20.953794   21.411999 H          1 MOL1         0.0832
      18    C7      20.217032   21.137599   22.862710 C.3        1 MOL1        -0.1685
      19    H12     20.631783   22.142824   23.017387 H          1 MOL1         0.0832
      20    H13     19.314198   21.286018   22.255830 H          1 MOL1         0.0832
      21    O1      19.697826   19.691312   20.296401 O.3        1 MOL1        -0.5509
      22    H14     20.132388   20.450758   19.857445 H          1 MOL1         0.3779
@<TRIPOS>BOND
    1     1     2    1
    2     1     3    1
    3     1     4    1
    4     4     5    1
    5     4     6    1
    6     4     7    1
    7     7     8    1
    8     7     9    1
    9     7    10    1
   10    10    11    1
   11    10    12    1
   12    10    13    1
   13    13    14    1
   14    13    15    1
   15    15    16    1
   16    15    17    1
   17     1    18    1
   18    15    18    1
   19    18    19    1
   20    18    20    1
   21    13    21    1
   22    21    22    1
@<TRIPOS>SUBSTRUCTURE
       1 MOL1            1 RESIDUE      1      MOL     
@<SCITEGIC>MOL_PROPERTY
VConf Rank
SciTegic.value.IntegerValue
156

@<SCITEGIC>MOL_PROPERTY
Conf_Id
SciTegic.value.IntegerValue
95

@<SCITEGIC>MOL_PROPERTY
Delta U+W
SciTegic.value.DoubleValue
-2.289

@<SCITEGIC>MOL_PROPERTY
U+W
SciTegic.value.DoubleValue
4.134

@<SCITEGIC>MOL_PROPERTY
Grad RMS
SciTegic.value.DoubleValue
0.000000

@<SCITEGIC>MOL_PROPERTY
U
SciTegic.value.DoubleValue
6.373

@<SCITEGIC>MOL_PROPERTY
W
SciTegic.value.DoubleValue
-2.240

@<SCITEGIC>MOL_PROPERTY
W(PB)
SciTegic.value.DoubleValue
-4.254

@<SCITEGIC>MOL_PROPERTY
W(SA)
SciTegic.value.DoubleValue
2.015

@<SCITEGIC>MOL_PROPERTY
Valence
SciTegic.value.DoubleValue
12.093

@<SCITEGIC>MOL_PROPERTY
Coulomb
SciTegic.value.DoubleValue
-8.058

@<SCITEGIC>MOL_PROPERTY
VdW
SciTegic.value.DoubleValue
2.339

@<SCITEGIC>MOL_PROPERTY
VdW6
SciTegic.value.DoubleValue
-9.683

@<SCITEGIC>MOL_PROPERTY
VdW12
SciTegic.value.DoubleValue
12.022

@<SCITEGIC>MOL_PROPERTY
Bond
SciTegic.value.DoubleValue
0.268

@<SCITEGIC>MOL_PROPERTY
Angle
SciTegic.value.DoubleValue
3.005

@<SCITEGIC>MOL_PROPERTY
Pdih
SciTegic.value.DoubleValue
8.820

@<SCITEGIC>MOL_PROPERTY
Idih
SciTegic.value.DoubleValue
0.000

@<SCITEGIC>MOL_PROPERTY
Tether
SciTegic.value.DoubleValue
0.000

@<TRIPOS>MOLECULE
guest-5_confgen4.mol2 : confsearch ligand conformer 157
          22          22           1
SMALL
USER_CHARGES
 
@<TRIPOS>ATOM
       1    C1      19.766485   21.516637   22.812851 C.3        1 MOL1        -0.1685
       2    H1      19.131251   22.067315   23.519948 H          1 MOL1         0.0832
       3    H2      20.251368   22.280954   22.190358 H          1 MOL1         0.0832
       4    C2      18.852387   20.646979   21.917057 C.3        1 MOL1        -0.1685
       5    H3      18.009824   20.268982   22.511771 H          1 MOL1         0.0832
       6    H4      18.404264   21.299202   21.155092 H          1 MOL1         0.0832
       7    C3      19.557714   19.464106   21.213608 C.3        1 MOL1        -0.1685
       8    H5      20.571037   19.743915   20.894700 H          1 MOL1         0.0832
       9    H6      19.001518   19.234005   20.294844 H          1 MOL1         0.0832
      10    C4      19.584417   18.181749   22.083181 C.3        1 MOL1        -0.1761
      11    H7      18.571791   17.979274   22.455322 H          1 MOL1         0.0832
      12    H8      19.834610   17.327373   21.440977 H          1 MOL1         0.0832
      13    C5      20.559401   18.191335   23.282785 C.3        1 MOL1         0.1218
      14    H9      20.330842   17.300121   23.884947 H          1 MOL1         0.0789
      15    C6      20.435395   19.417664   24.221440 C.3        1 MOL1        -0.1761
      16    H10     19.410790   19.491688   24.607696 H          1 MOL1         0.0832
      17    H11     21.071637   19.223346   25.094518 H          1 MOL1         0.0832
      18    C7      20.870150   20.770536   23.600017 C.3        1 MOL1        -0.1685
      19    H12     21.216899   21.432817   24.404608 H          1 MOL1         0.0832
      20    H13     21.743707   20.620028   22.952048 H          1 MOL1         0.0832
      21    O1      21.896325   18.073409   22.805688 O.3        1 MOL1        -0.5509
      22    H14     21.914524   17.298382   22.208036 H          1 MOL1         0.3779
@<TRIPOS>BOND
    1     1     2    1
    2     1     3    1
    3     1     4    1
    4     4     5    1
    5     4     6    1
    6     4     7    1
    7     7     8    1
    8     7     9    1
    9     7    10    1
   10    10    11    1
   11    10    12    1
   12    10    13    1
   13    13    14    1
   14    13    15    1
   15    15    16    1
   16    15    17    1
   17     1    18    1
   18    15    18    1
   19    18    19    1
   20    18    20    1
   21    13    21    1
   22    21    22    1
@<TRIPOS>SUBSTRUCTURE
       1 MOL1            1 RESIDUE      1      MOL     
@<SCITEGIC>MOL_PROPERTY
VConf Rank
SciTegic.value.IntegerValue
157

@<SCITEGIC>MOL_PROPERTY
Conf_Id
SciTegic.value.IntegerValue
41

@<SCITEGIC>MOL_PROPERTY
Delta U+W
SciTegic.value.DoubleValue
-2.114

@<SCITEGIC>MOL_PROPERTY
U+W
SciTegic.value.DoubleValue
4.310

@<SCITEGIC>MOL_PROPERTY
Grad RMS
SciTegic.value.DoubleValue
0.000000

@<SCITEGIC>MOL_PROPERTY
U
SciTegic.value.DoubleValue
6.598

@<SCITEGIC>MOL_PROPERTY
W
SciTegic.value.DoubleValue
-2.289

@<SCITEGIC>MOL_PROPERTY
W(PB)
SciTegic.value.DoubleValue
-4.294

@<SCITEGIC>MOL_PROPERTY
W(SA)
SciTegic.value.DoubleValue
2.005

@<SCITEGIC>MOL_PROPERTY
Valence
SciTegic.value.DoubleValue
12.082

@<SCITEGIC>MOL_PROPERTY
Coulomb
SciTegic.value.DoubleValue
-7.801

@<SCITEGIC>MOL_PROPERTY
VdW
SciTegic.value.DoubleValue
2.317

@<SCITEGIC>MOL_PROPERTY
VdW6
SciTegic.value.DoubleValue
-9.658

@<SCITEGIC>MOL_PROPERTY
VdW12
SciTegic.value.DoubleValue
11.975

@<SCITEGIC>MOL_PROPERTY
Bond
SciTegic.value.DoubleValue
0.267

@<SCITEGIC>MOL_PROPERTY
Angle
SciTegic.value.DoubleValue
3.051

@<SCITEGIC>MOL_PROPERTY
Pdih
SciTegic.value.DoubleValue
8.764

@<SCITEGIC>MOL_PROPERTY
Idih
SciTegic.value.DoubleValue
0.000

@<SCITEGIC>MOL_PROPERTY
Tether
SciTegic.value.DoubleValue
0.000

@<TRIPOS>MOLECULE
guest-5_confgen4.mol2 : confsearch ligand conformer 158
          22          22           1
SMALL
USER_CHARGES
 
@<TRIPOS>ATOM
       1    C1      18.515946   19.031841   22.477632 C.3        1 MOL1        -0.1685
       2    H1      17.423509   18.934645   22.416924 H          1 MOL1         0.0832
       3    H2      18.930775   18.273894   21.798950 H          1 MOL1         0.0832
       4    C2      18.936604   18.747518   23.936945 C.3        1 MOL1        -0.1685
       5    H3      18.564757   19.549115   24.589442 H          1 MOL1         0.0832
       6    H4      18.436781   17.829107   24.273485 H          1 MOL1         0.0832
       7    C3      20.456925   18.575466   24.147285 C.3        1 MOL1        -0.1685
       8    H5      20.790054   17.647631   23.663511 H          1 MOL1         0.0832
       9    H6      20.635343   18.427667   25.220806 H          1 MOL1         0.0832
      10    C4      21.328580   19.767394   23.666960 C.3        1 MOL1        -0.1761
      11    H7      20.948387   20.706285   24.089090 H          1 MOL1         0.0832
      12    H8      22.332359   19.636853   24.091188 H          1 MOL1         0.0832
      13    C5      21.496641   19.910474   22.132256 C.3        1 MOL1         0.1218
      14    H9      22.364143   20.566484   21.969873 H          1 MOL1         0.0789
      15    C6      20.311205   20.569395   21.380121 C.3        1 MOL1        -0.1761
      16    H10     20.534654   21.638075   21.265859 H          1 MOL1         0.0832
      17    H11     20.271586   20.172479   20.357204 H          1 MOL1         0.0832
      18    C7      18.901667   20.453075   22.011446 C.3        1 MOL1        -0.1685
      19    H12     18.808978   21.157138   22.849372 H          1 MOL1         0.0832
      20    H13     18.170186   20.787924   21.263456 H          1 MOL1         0.0832
      21    O1      21.795424   18.647418   21.543752 O.3        1 MOL1        -0.5509
      22    H14     21.929381   18.805755   20.587251 H          1 MOL1         0.3779
@<TRIPOS>BOND
    1     1     2    1
    2     1     3    1
    3     1     4    1
    4     4     5    1
    5     4     6    1
    6     4     7    1
    7     7     8    1
    8     7     9    1
    9     7    10    1
   10    10    11    1
   11    10    12    1
   12    10    13    1
   13    13    14    1
   14    13    15    1
   15    15    16    1
   16    15    17    1
   17     1    18    1
   18    15    18    1
   19    18    19    1
   20    18    20    1
   21    13    21    1
   22    21    22    1
@<TRIPOS>SUBSTRUCTURE
       1 MOL1            1 RESIDUE      1      MOL     
@<SCITEGIC>MOL_PROPERTY
VConf Rank
SciTegic.value.IntegerValue
158

@<SCITEGIC>MOL_PROPERTY
Conf_Id
SciTegic.value.IntegerValue
104

@<SCITEGIC>MOL_PROPERTY
Delta U+W
SciTegic.value.DoubleValue
-1.172

@<SCITEGIC>MOL_PROPERTY
U+W
SciTegic.value.DoubleValue
5.252

@<SCITEGIC>MOL_PROPERTY
Grad RMS
SciTegic.value.DoubleValue
0.000000

@<SCITEGIC>MOL_PROPERTY
U
SciTegic.value.DoubleValue
7.482

@<SCITEGIC>MOL_PROPERTY
W
SciTegic.value.DoubleValue
-2.230

@<SCITEGIC>MOL_PROPERTY
W(PB)
SciTegic.value.DoubleValue
-4.220

@<SCITEGIC>MOL_PROPERTY
W(SA)
SciTegic.value.DoubleValue
1.990

@<SCITEGIC>MOL_PROPERTY
Valence
SciTegic.value.DoubleValue
12.309

@<SCITEGIC>MOL_PROPERTY
Coulomb
SciTegic.value.DoubleValue
-7.084

@<SCITEGIC>MOL_PROPERTY
VdW
SciTegic.value.DoubleValue
2.258

@<SCITEGIC>MOL_PROPERTY
VdW6
SciTegic.value.DoubleValue
-9.770

@<SCITEGIC>MOL_PROPERTY
VdW12
SciTegic.value.DoubleValue
12.028

@<SCITEGIC>MOL_PROPERTY
Bond
SciTegic.value.DoubleValue
0.284

@<SCITEGIC>MOL_PROPERTY
Angle
SciTegic.value.DoubleValue
3.491

@<SCITEGIC>MOL_PROPERTY
Pdih
SciTegic.value.DoubleValue
8.535

@<SCITEGIC>MOL_PROPERTY
Idih
SciTegic.value.DoubleValue
0.000

@<SCITEGIC>MOL_PROPERTY
Tether
SciTegic.value.DoubleValue
0.000

@<TRIPOS>MOLECULE
guest-5_confgen4.mol2 : confsearch ligand conformer 159
          22          22           1
SMALL
USER_CHARGES
 
@<TRIPOS>ATOM
       1    C1      20.564492   18.713368   23.969298 C.3        1 MOL1        -0.1685
       2    H1      19.986431   19.319708   24.679707 H          1 MOL1         0.0832
       3    H2      21.097848   17.966703   24.573419 H          1 MOL1         0.0832
       4    C2      21.621459   19.574430   23.240685 C.3        1 MOL1        -0.1685
       5    H3      22.482922   19.711244   23.908825 H          1 MOL1         0.0832
       6    H4      22.014922   19.016645   22.380802 H          1 MOL1         0.0832
       7    C3      21.147530   20.978843   22.788257 C.3        1 MOL1        -0.1685
       8    H5      21.765922   21.297274   21.937665 H          1 MOL1         0.0832
       9    H6      21.366935   21.695092   23.591859 H          1 MOL1         0.0832
      10    C4      19.648423   21.138277   22.416152 C.3        1 MOL1        -0.1761
      11    H7      19.057010   21.221723   23.337142 H          1 MOL1         0.0832
      12    H8      19.526375   22.103375   21.907535 H          1 MOL1         0.0832
      13    C5      19.023895   20.042014   21.522759 C.3        1 MOL1         0.1218
      14    H9      18.137984   20.479028   21.039995 H          1 MOL1         0.0789
      15    C6      18.535027   18.817344   22.328651 C.3        1 MOL1        -0.1761
      16    H10     17.830416   19.160720   23.097205 H          1 MOL1         0.0832
      17    H11     17.949625   18.176780   21.656173 H          1 MOL1         0.0832
      18    C7      19.628494   17.951033   23.001427 C.3        1 MOL1        -0.1685
      19    H12     19.125942   17.153015   23.564739 H          1 MOL1         0.0832
      20    H13     20.223715   17.439632   22.232884 H          1 MOL1         0.0832
      21    O1      19.941330   19.633387   20.520009 O.3        1 MOL1        -0.5509
      22    H14     20.727014   19.337885   21.021670 H          1 MOL1         0.3779
@<TRIPOS>BOND
    1     1     2    1
    2     1     3    1
    3     1     4    1
    4     4     5    1
    5     4     6    1
    6     4     7    1
    7     7     8    1
    8     7     9    1
    9     7    10    1
   10    10    11    1
   11    10    12    1
   12    10    13    1
   13    13    14    1
   14    13    15    1
   15    15    16    1
   16    15    17    1
   17     1    18    1
   18    15    18    1
   19    18    19    1
   20    18    20    1
   21    13    21    1
   22    21    22    1
@<TRIPOS>SUBSTRUCTURE
       1 MOL1            1 RESIDUE      1      MOL     
@<SCITEGIC>MOL_PROPERTY
VConf Rank
SciTegic.value.IntegerValue
159

@<SCITEGIC>MOL_PROPERTY
Conf_Id
SciTegic.value.IntegerValue
99

@<SCITEGIC>MOL_PROPERTY
Delta U+W
SciTegic.value.DoubleValue
-3.852

@<SCITEGIC>MOL_PROPERTY
U+W
SciTegic.value.DoubleValue
2.572

@<SCITEGIC>MOL_PROPERTY
Grad RMS
SciTegic.value.DoubleValue
0.000000

@<SCITEGIC>MOL_PROPERTY
U
SciTegic.value.DoubleValue
3.922

@<SCITEGIC>MOL_PROPERTY
W
SciTegic.value.DoubleValue
-1.350

@<SCITEGIC>MOL_PROPERTY
W(PB)
SciTegic.value.DoubleValue
-3.345

@<SCITEGIC>MOL_PROPERTY
W(SA)
SciTegic.value.DoubleValue
1.995

@<SCITEGIC>MOL_PROPERTY
Valence
SciTegic.value.DoubleValue
12.571

@<SCITEGIC>MOL_PROPERTY
Coulomb
SciTegic.value.DoubleValue
-10.581

@<SCITEGIC>MOL_PROPERTY
VdW
SciTegic.value.DoubleValue
1.932

@<SCITEGIC>MOL_PROPERTY
VdW6
SciTegic.value.DoubleValue
-10.483

@<SCITEGIC>MOL_PROPERTY
VdW12
SciTegic.value.DoubleValue
12.415

@<SCITEGIC>MOL_PROPERTY
Bond
SciTegic.value.DoubleValue
0.268

@<SCITEGIC>MOL_PROPERTY
Angle
SciTegic.value.DoubleValue
3.728

@<SCITEGIC>MOL_PROPERTY
Pdih
SciTegic.value.DoubleValue
8.575

@<SCITEGIC>MOL_PROPERTY
Idih
SciTegic.value.DoubleValue
0.000

@<SCITEGIC>MOL_PROPERTY
Tether
SciTegic.value.DoubleValue
0.000

@<TRIPOS>MOLECULE
guest-5_confgen4.mol2 : confsearch ligand conformer 160
          22          22           1
SMALL
USER_CHARGES
 
@<TRIPOS>ATOM
       1    C1      21.158662   19.743838   21.419210 C.3        1 MOL1        -0.1685
       2    H1      21.408189   19.734113   20.349195 H          1 MOL1         0.0832
       3    H2      22.099568   19.994600   21.927019 H          1 MOL1         0.0832
       4    C2      20.700793   18.309612   21.815701 C.3        1 MOL1        -0.1685
       5    H3      20.752297   17.679073   20.917336 H          1 MOL1         0.0832
       6    H4      21.419042   17.863241   22.516361 H          1 MOL1         0.0832
       7    C3      19.267983   18.190105   22.394944 C.3        1 MOL1        -0.1685
       8    H5      19.003268   17.125262   22.447484 H          1 MOL1         0.0832
       9    H6      18.546142   18.619024   21.688868 H          1 MOL1         0.0832
      10    C4      19.050088   18.804136   23.805730 C.3        1 MOL1        -0.1761
      11    H7      17.979142   19.011208   23.927945 H          1 MOL1         0.0832
      12    H8      19.285075   18.038575   24.557192 H          1 MOL1         0.0832
      13    C5      19.841885   20.081817   24.178219 C.3        1 MOL1         0.1218
      14    H9      19.390870   20.480152   25.098376 H          1 MOL1         0.0789
      15    C6      19.823965   21.227175   23.136117 C.3        1 MOL1        -0.1761
      16    H10     18.844571   21.720793   23.179343 H          1 MOL1         0.0832
      17    H11     20.546005   21.985948   23.466148 H          1 MOL1         0.0832
      18    C7      20.125316   20.875380   21.652800 C.3        1 MOL1        -0.1685
      19    H12     19.190073   20.636210   21.131564 H          1 MOL1         0.0832
      20    H13     20.491239   21.785992   21.159231 H          1 MOL1         0.0832
      21    O1      21.183930   19.737874   24.484586 O.3        1 MOL1        -0.5509
      22    H14     21.537770   19.391770   23.640819 H          1 MOL1         0.3779
@<TRIPOS>BOND
    1     1     2    1
    2     1     3    1
    3     1     4    1
    4     4     5    1
    5     4     6    1
    6     4     7    1
    7     7     8    1
    8     7     9    1
    9     7    10    1
   10    10    11    1
   11    10    12    1
   12    10    13    1
   13    13    14    1
   14    13    15    1
   15    15    16    1
   16    15    17    1
   17     1    18    1
   18    15    18    1
   19    18    19    1
   20    18    20    1
   21    13    21    1
   22    21    22    1
@<TRIPOS>SUBSTRUCTURE
       1 MOL1            1 RESIDUE      1      MOL     
@<SCITEGIC>MOL_PROPERTY
VConf Rank
SciTegic.value.IntegerValue
160

@<SCITEGIC>MOL_PROPERTY
Conf_Id
SciTegic.value.IntegerValue
98

@<SCITEGIC>MOL_PROPERTY
Delta U+W
SciTegic.value.DoubleValue
0.930

@<SCITEGIC>MOL_PROPERTY
U+W
SciTegic.value.DoubleValue
7.353

@<SCITEGIC>MOL_PROPERTY
Grad RMS
SciTegic.value.DoubleValue
0.000000

@<SCITEGIC>MOL_PROPERTY
U
SciTegic.value.DoubleValue
8.455

@<SCITEGIC>MOL_PROPERTY
W
SciTegic.value.DoubleValue
-1.102

@<SCITEGIC>MOL_PROPERTY
W(PB)
SciTegic.value.DoubleValue
-3.101

@<SCITEGIC>MOL_PROPERTY
W(SA)
SciTegic.value.DoubleValue
2.000

@<SCITEGIC>MOL_PROPERTY
Valence
SciTegic.value.DoubleValue
15.601

@<SCITEGIC>MOL_PROPERTY
Coulomb
SciTegic.value.DoubleValue
-10.573

@<SCITEGIC>MOL_PROPERTY
VdW
SciTegic.value.DoubleValue
3.427

@<SCITEGIC>MOL_PROPERTY
VdW6
SciTegic.value.DoubleValue
-11.360

@<SCITEGIC>MOL_PROPERTY
VdW12
SciTegic.value.DoubleValue
14.787

@<SCITEGIC>MOL_PROPERTY
Bond
SciTegic.value.DoubleValue
0.471

@<SCITEGIC>MOL_PROPERTY
Angle
SciTegic.value.DoubleValue
5.445

@<SCITEGIC>MOL_PROPERTY
Pdih
SciTegic.value.DoubleValue
9.685

@<SCITEGIC>MOL_PROPERTY
Idih
SciTegic.value.DoubleValue
0.000

@<SCITEGIC>MOL_PROPERTY
Tether
SciTegic.value.DoubleValue
0.000

@<TRIPOS>MOLECULE
guest-5_confgen4.mol2 : confsearch ligand conformer 161
          22          22           1
SMALL
USER_CHARGES
 
@<TRIPOS>ATOM
       1    C1      19.800245   18.291059   21.487506 C.3        1 MOL1        -0.1685
       2    H1      19.875191   17.573007   22.314286 H          1 MOL1         0.0832
       3    H2      19.596718   17.680571   20.597229 H          1 MOL1         0.0832
       4    C2      21.159668   19.009520   21.292714 C.3        1 MOL1        -0.1685
       5    H3      21.913393   18.239021   21.080331 H          1 MOL1         0.0832
       6    H4      21.117079   19.639645   20.393963 H          1 MOL1         0.0832
       7    C3      21.663691   19.861723   22.490360 C.3        1 MOL1        -0.1685
       8    H5      21.504030   20.928528   22.286765 H          1 MOL1         0.0832
       9    H6      22.754073   19.746884   22.557544 H          1 MOL1         0.0832
      10    C4      21.040059   19.498331   23.863946 C.3        1 MOL1        -0.1761
      11    H7      21.146106   18.419575   24.033260 H          1 MOL1         0.0832
      12    H8      21.644139   19.967803   24.652026 H          1 MOL1         0.0832
      13    C5      19.549891   19.902997   24.062725 C.3        1 MOL1         0.1218
      14    H9      19.021475   19.044705   24.502245 H          1 MOL1         0.0789
      15    C6      18.789394   20.335306   22.784049 C.3        1 MOL1        -0.1761
      16    H10     17.797798   20.709736   23.069698 H          1 MOL1         0.0832
      17    H11     19.296483   21.192499   22.325062 H          1 MOL1         0.0832
      18    C7      18.589622   19.224720   21.722683 C.3        1 MOL1        -0.1685
      19    H12     17.731385   18.604256   22.014690 H          1 MOL1         0.0832
      20    H13     18.309534   19.698091   20.771820 H          1 MOL1         0.0832
      21    O1      19.496684   20.990818   24.978690 O.3        1 MOL1        -0.5509
      22    H14     18.548596   21.187009   25.129745 H          1 MOL1         0.3779
@<TRIPOS>BOND
    1     1     2    1
    2     1     3    1
    3     1     4    1
    4     4     5    1
    5     4     6    1
    6     4     7    1
    7     7     8    1
    8     7     9    1
    9     7    10    1
   10    10    11    1
   11    10    12    1
   12    10    13    1
   13    13    14    1
   14    13    15    1
   15    15    16    1
   16    15    17    1
   17     1    18    1
   18    15    18    1
   19    18    19    1
   20    18    20    1
   21    13    21    1
   22    21    22    1
@<TRIPOS>SUBSTRUCTURE
       1 MOL1            1 RESIDUE      1      MOL     
@<SCITEGIC>MOL_PROPERTY
VConf Rank
SciTegic.value.IntegerValue
161

@<SCITEGIC>MOL_PROPERTY
Conf_Id
SciTegic.value.IntegerValue
141

@<SCITEGIC>MOL_PROPERTY
Delta U+W
SciTegic.value.DoubleValue
0.000

@<SCITEGIC>MOL_PROPERTY
U+W
SciTegic.value.DoubleValue
6.423

@<SCITEGIC>MOL_PROPERTY
Grad RMS
SciTegic.value.DoubleValue
0.000000

@<SCITEGIC>MOL_PROPERTY
U
SciTegic.value.DoubleValue
8.781

@<SCITEGIC>MOL_PROPERTY
W
SciTegic.value.DoubleValue
-2.358

@<SCITEGIC>MOL_PROPERTY
W(PB)
SciTegic.value.DoubleValue
-4.373

@<SCITEGIC>MOL_PROPERTY
W(SA)
SciTegic.value.DoubleValue
2.015

@<SCITEGIC>MOL_PROPERTY
Valence
SciTegic.value.DoubleValue
13.328

@<SCITEGIC>MOL_PROPERTY
Coulomb
SciTegic.value.DoubleValue
-8.387

@<SCITEGIC>MOL_PROPERTY
VdW
SciTegic.value.DoubleValue
3.840

@<SCITEGIC>MOL_PROPERTY
VdW6
SciTegic.value.DoubleValue
-9.744

@<SCITEGIC>MOL_PROPERTY
VdW12
SciTegic.value.DoubleValue
13.584

@<SCITEGIC>MOL_PROPERTY
Bond
SciTegic.value.DoubleValue
0.436

@<SCITEGIC>MOL_PROPERTY
Angle
SciTegic.value.DoubleValue
3.478

@<SCITEGIC>MOL_PROPERTY
Pdih
SciTegic.value.DoubleValue
9.415

@<SCITEGIC>MOL_PROPERTY
Idih
SciTegic.value.DoubleValue
0.000

@<SCITEGIC>MOL_PROPERTY
Tether
SciTegic.value.DoubleValue
0.000

@<TRIPOS>MOLECULE
guest-5_confgen4.mol2 : confsearch ligand conformer 162
          22          22           1
SMALL
USER_CHARGES
 
@<TRIPOS>ATOM
       1    C1      18.651543   19.817484   21.545502 C.3        1 MOL1        -0.1685
       2    H1      18.466940   18.736139   21.602282 H          1 MOL1         0.0832
       3    H2      17.861174   20.227069   20.901715 H          1 MOL1         0.0832
       4    C2      20.010549   20.112102   20.865828 C.3        1 MOL1        -0.1685
       5    H3      19.939240   19.833381   19.805599 H          1 MOL1         0.0832
       6    H4      20.196584   21.194749   20.877857 H          1 MOL1         0.0832
       7    C3      21.226185   19.377659   21.476691 C.3        1 MOL1        -0.1685
       8    H5      22.130488   19.719958   20.955256 H          1 MOL1         0.0832
       9    H6      21.147116   18.302555   21.264890 H          1 MOL1         0.0832
      10    C4      21.422324   19.590502   22.997680 C.3        1 MOL1        -0.1761
      11    H7      22.422974   19.221291   23.258194 H          1 MOL1         0.0832
      12    H8      21.418225   20.660530   23.242667 H          1 MOL1         0.0832
      13    C5      20.373082   18.837066   23.845649 C.3        1 MOL1         0.1218
      14    H9      20.106746   17.909410   23.318997 H          1 MOL1         0.0789
      15    C6      19.074849   19.631619   24.115041 C.3        1 MOL1        -0.1761
      16    H10     18.305620   18.913378   24.426918 H          1 MOL1         0.0832
      17    H11     19.228818   20.299055   24.973490 H          1 MOL1         0.0832
      18    C7      18.520736   20.474745   22.939396 C.3        1 MOL1        -0.1685
      19    H12     17.460104   20.679730   23.139058 H          1 MOL1         0.0832
      20    H13     19.012732   21.456840   22.927651 H          1 MOL1         0.0832
      21    O1      20.952960   18.501667   25.100427 O.3        1 MOL1        -0.5509
      22    H14     21.730067   17.935580   24.909984 H          1 MOL1         0.3779
@<TRIPOS>BOND
    1     1     2    1
    2     1     3    1
    3     1     4    1
    4     4     5    1
    5     4     6    1
    6     4     7    1
    7     7     8    1
    8     7     9    1
    9     7    10    1
   10    10    11    1
   11    10    12    1
   12    10    13    1
   13    13    14    1
   14    13    15    1
   15    15    16    1
   16    15    17    1
   17     1    18    1
   18    15    18    1
   19    18    19    1
   20    18    20    1
   21    13    21    1
   22    21    22    1
@<TRIPOS>SUBSTRUCTURE
       1 MOL1            1 RESIDUE      1      MOL     
@<SCITEGIC>MOL_PROPERTY
VConf Rank
SciTegic.value.IntegerValue
162

@<SCITEGIC>MOL_PROPERTY
Conf_Id
SciTegic.value.IntegerValue
144

@<SCITEGIC>MOL_PROPERTY
Delta U+W
SciTegic.value.DoubleValue
-3.291

@<SCITEGIC>MOL_PROPERTY
U+W
SciTegic.value.DoubleValue
3.132

@<SCITEGIC>MOL_PROPERTY
Grad RMS
SciTegic.value.DoubleValue
0.000000

@<SCITEGIC>MOL_PROPERTY
U
SciTegic.value.DoubleValue
5.411

@<SCITEGIC>MOL_PROPERTY
W
SciTegic.value.DoubleValue
-2.279

@<SCITEGIC>MOL_PROPERTY
W(PB)
SciTegic.value.DoubleValue
-4.300

@<SCITEGIC>MOL_PROPERTY
W(SA)
SciTegic.value.DoubleValue
2.021

@<SCITEGIC>MOL_PROPERTY
Valence
SciTegic.value.DoubleValue
11.909

@<SCITEGIC>MOL_PROPERTY
Coulomb
SciTegic.value.DoubleValue
-8.733

@<SCITEGIC>MOL_PROPERTY
VdW
SciTegic.value.DoubleValue
2.236

@<SCITEGIC>MOL_PROPERTY
VdW6
SciTegic.value.DoubleValue
-8.936

@<SCITEGIC>MOL_PROPERTY
VdW12
SciTegic.value.DoubleValue
11.172

@<SCITEGIC>MOL_PROPERTY
Bond
SciTegic.value.DoubleValue
0.223

@<SCITEGIC>MOL_PROPERTY
Angle
SciTegic.value.DoubleValue
2.457

@<SCITEGIC>MOL_PROPERTY
Pdih
SciTegic.value.DoubleValue
9.228

@<SCITEGIC>MOL_PROPERTY
Idih
SciTegic.value.DoubleValue
0.000

@<SCITEGIC>MOL_PROPERTY
Tether
SciTegic.value.DoubleValue
0.000

@<TRIPOS>MOLECULE
guest-5_confgen4.mol2 : confsearch ligand conformer 163
          22          22           1
SMALL
USER_CHARGES
 
@<TRIPOS>ATOM
       1    C1      19.732565   21.225836   23.055459 C.3        1 MOL1        -0.1685
       2    H1      19.365074   22.258103   23.134619 H          1 MOL1         0.0832
       3    H2      20.628211   21.172677   23.689238 H          1 MOL1         0.0832
       4    C2      20.088625   20.957093   21.574556 C.3        1 MOL1        -0.1685
       5    H3      19.177019   20.692609   21.021568 H          1 MOL1         0.0832
       6    H4      20.446207   21.891127   21.119900 H          1 MOL1         0.0832
       7    C3      21.168243   19.871774   21.345583 C.3        1 MOL1        -0.1685
       8    H5      22.161896   20.327396   21.455026 H          1 MOL1         0.0832
       9    H6      21.105240   19.541619   20.299616 H          1 MOL1         0.0832
      10    C4      21.102103   18.631471   22.270470 C.3        1 MOL1        -0.1761
      11    H7      21.681987   17.827923   21.796639 H          1 MOL1         0.0832
      12    H8      21.619266   18.856141   23.212255 H          1 MOL1         0.0832
      13    C5      19.675511   18.124531   22.579403 C.3        1 MOL1         0.1218
      14    H9      19.031103   18.281295   21.702687 H          1 MOL1         0.0789
      15    C6      19.053285   18.820252   23.811387 C.3        1 MOL1        -0.1761
      16    H10     18.168578   18.251249   24.127078 H          1 MOL1         0.0832
      17    H11     19.758062   18.776093   24.651878 H          1 MOL1         0.0832
      18    C7      18.621741   20.289130   23.588040 C.3        1 MOL1        -0.1685
      19    H12     17.762682   20.316098   22.903777 H          1 MOL1         0.0832
      20    H13     18.255506   20.688208   24.543758 H          1 MOL1         0.0832
      21    O1      19.746005   16.731787   22.854189 O.3        1 MOL1        -0.5509
      22    H14     20.327162   16.633216   23.636301 H          1 MOL1         0.3779
@<TRIPOS>BOND
    1     1     2    1
    2     1     3    1
    3     1     4    1
    4     4     5    1
    5     4     6    1
    6     4     7    1
    7     7     8    1
    8     7     9    1
    9     7    10    1
   10    10    11    1
   11    10    12    1
   12    10    13    1
   13    13    14    1
   14    13    15    1
   15    15    16    1
   16    15    17    1
   17     1    18    1
   18    15    18    1
   19    18    19    1
   20    18    20    1
   21    13    21    1
   22    21    22    1
@<TRIPOS>SUBSTRUCTURE
       1 MOL1            1 RESIDUE      1      MOL     
@<SCITEGIC>MOL_PROPERTY
VConf Rank
SciTegic.value.IntegerValue
163

@<SCITEGIC>MOL_PROPERTY
Conf_Id
SciTegic.value.IntegerValue
76

@<SCITEGIC>MOL_PROPERTY
Delta U+W
SciTegic.value.DoubleValue
-3.175

@<SCITEGIC>MOL_PROPERTY
U+W
SciTegic.value.DoubleValue
3.248

@<SCITEGIC>MOL_PROPERTY
Grad RMS
SciTegic.value.DoubleValue
0.000000

@<SCITEGIC>MOL_PROPERTY
U
SciTegic.value.DoubleValue
5.336

@<SCITEGIC>MOL_PROPERTY
W
SciTegic.value.DoubleValue
-2.088

@<SCITEGIC>MOL_PROPERTY
W(PB)
SciTegic.value.DoubleValue
-4.098

@<SCITEGIC>MOL_PROPERTY
W(SA)
SciTegic.value.DoubleValue
2.010

@<SCITEGIC>MOL_PROPERTY
Valence
SciTegic.value.DoubleValue
12.390

@<SCITEGIC>MOL_PROPERTY
Coulomb
SciTegic.value.DoubleValue
-9.270

@<SCITEGIC>MOL_PROPERTY
VdW
SciTegic.value.DoubleValue
2.216

@<SCITEGIC>MOL_PROPERTY
VdW6
SciTegic.value.DoubleValue
-8.967

@<SCITEGIC>MOL_PROPERTY
VdW12
SciTegic.value.DoubleValue
11.183

@<SCITEGIC>MOL_PROPERTY
Bond
SciTegic.value.DoubleValue
0.218

@<SCITEGIC>MOL_PROPERTY
Angle
SciTegic.value.DoubleValue
2.426

@<SCITEGIC>MOL_PROPERTY
Pdih
SciTegic.value.DoubleValue
9.745

@<SCITEGIC>MOL_PROPERTY
Idih
SciTegic.value.DoubleValue
0.000

@<SCITEGIC>MOL_PROPERTY
Tether
SciTegic.value.DoubleValue
0.000

@<TRIPOS>MOLECULE
guest-5_confgen4.mol2 : confsearch ligand conformer 164
          22          22           1
SMALL
USER_CHARGES
 
@<TRIPOS>ATOM
       1    C1      18.726232   18.430356   23.354214 C.3        1 MOL1        -0.1685
       2    H1      17.737371   18.725427   23.730868 H          1 MOL1         0.0832
       3    H2      18.736142   17.331983   23.371304 H          1 MOL1         0.0832
       4    C2      19.796509   18.956873   24.340095 C.3        1 MOL1        -0.1685
       5    H3      19.485566   19.935313   24.730543 H          1 MOL1         0.0832
       6    H4      19.815764   18.286308   25.210012 H          1 MOL1         0.0832
       7    C3      21.225151   19.065612   23.758114 C.3        1 MOL1        -0.1685
       8    H5      21.435846   18.232509   23.073729 H          1 MOL1         0.0832
       9    H6      21.939333   18.967273   24.586706 H          1 MOL1         0.0832
      10    C4      21.489316   20.427254   23.066574 C.3        1 MOL1        -0.1761
      11    H7      21.202472   21.239142   23.747068 H          1 MOL1         0.0832
      12    H8      22.570881   20.538692   22.914217 H          1 MOL1         0.0832
      13    C5      20.791309   20.648827   21.705403 C.3        1 MOL1         0.1218
      14    H9      20.930535   21.708395   21.446503 H          1 MOL1         0.0789
      15    C6      19.266684   20.373372   21.693888 C.3        1 MOL1        -0.1761
      16    H10     18.770500   20.995529   22.449931 H          1 MOL1         0.0832
      17    H11     18.875859   20.715012   20.726766 H          1 MOL1         0.0832
      18    C7      18.863975   18.887607   21.882422 C.3        1 MOL1        -0.1685
      19    H12     17.899813   18.716765   21.384799 H          1 MOL1         0.0832
      20    H13     19.578344   18.234886   21.363699 H          1 MOL1         0.0832
      21    O1      21.438771   19.860678   20.711603 O.3        1 MOL1        -0.5509
      22    H14     20.935847   19.989996   19.881768 H          1 MOL1         0.3779
@<TRIPOS>BOND
    1     1     2    1
    2     1     3    1
    3     1     4    1
    4     4     5    1
    5     4     6    1
    6     4     7    1
    7     7     8    1
    8     7     9    1
    9     7    10    1
   10    10    11    1
   11    10    12    1
   12    10    13    1
   13    13    14    1
   14    13    15    1
   15    15    16    1
   16    15    17    1
   17     1    18    1
   18    15    18    1
   19    18    19    1
   20    18    20    1
   21    13    21    1
   22    21    22    1
@<TRIPOS>SUBSTRUCTURE
       1 MOL1            1 RESIDUE      1      MOL     
@<SCITEGIC>MOL_PROPERTY
VConf Rank
SciTegic.value.IntegerValue
164

@<SCITEGIC>MOL_PROPERTY
Conf_Id
SciTegic.value.IntegerValue
95

@<SCITEGIC>MOL_PROPERTY
Delta U+W
SciTegic.value.DoubleValue
-2.289

@<SCITEGIC>MOL_PROPERTY
U+W
SciTegic.value.DoubleValue
4.134

@<SCITEGIC>MOL_PROPERTY
Grad RMS
SciTegic.value.DoubleValue
0.000000

@<SCITEGIC>MOL_PROPERTY
U
SciTegic.value.DoubleValue
6.373

@<SCITEGIC>MOL_PROPERTY
W
SciTegic.value.DoubleValue
-2.240

@<SCITEGIC>MOL_PROPERTY
W(PB)
SciTegic.value.DoubleValue
-4.254

@<SCITEGIC>MOL_PROPERTY
W(SA)
SciTegic.value.DoubleValue
2.015

@<SCITEGIC>MOL_PROPERTY
Valence
SciTegic.value.DoubleValue
12.093

@<SCITEGIC>MOL_PROPERTY
Coulomb
SciTegic.value.DoubleValue
-8.058

@<SCITEGIC>MOL_PROPERTY
VdW
SciTegic.value.DoubleValue
2.339

@<SCITEGIC>MOL_PROPERTY
VdW6
SciTegic.value.DoubleValue
-9.683

@<SCITEGIC>MOL_PROPERTY
VdW12
SciTegic.value.DoubleValue
12.022

@<SCITEGIC>MOL_PROPERTY
Bond
SciTegic.value.DoubleValue
0.268

@<SCITEGIC>MOL_PROPERTY
Angle
SciTegic.value.DoubleValue
3.005

@<SCITEGIC>MOL_PROPERTY
Pdih
SciTegic.value.DoubleValue
8.820

@<SCITEGIC>MOL_PROPERTY
Idih
SciTegic.value.DoubleValue
0.000

@<SCITEGIC>MOL_PROPERTY
Tether
SciTegic.value.DoubleValue
0.000

@<TRIPOS>MOLECULE
guest-5_confgen4.mol2 : confsearch ligand conformer 165
          22          22           1
SMALL
USER_CHARGES
 
@<TRIPOS>ATOM
       1    C1      19.360177   18.662420   24.207210 C.3        1 MOL1        -0.1685
       2    H1      18.334332   18.662883   24.600142 H          1 MOL1         0.0832
       3    H2      19.918792   17.953562   24.833517 H          1 MOL1         0.0832
       4    C2      19.953563   20.078188   24.401691 C.3        1 MOL1        -0.1685
       5    H3      19.166544   20.828969   24.248695 H          1 MOL1         0.0832
       6    H4      20.254105   20.178542   25.453548 H          1 MOL1         0.0832
       7    C3      21.164757   20.410766   23.499518 C.3        1 MOL1        -0.1685
       8    H5      21.812266   19.532666   23.371095 H          1 MOL1         0.0832
       9    H6      21.774211   21.166558   24.013104 H          1 MOL1         0.0832
      10    C4      20.744924   20.995499   22.127243 C.3        1 MOL1        -0.1761
      11    H7      20.032370   21.814651   22.288967 H          1 MOL1         0.0832
      12    H8      21.622710   21.461279   21.660850 H          1 MOL1         0.0832
      13    C5      20.130278   19.997105   21.119695 C.3        1 MOL1         0.1218
      14    H9      19.732671   20.592413   20.285059 H          1 MOL1         0.0789
      15    C6      18.958241   19.145729   21.669079 C.3        1 MOL1        -0.1761
      16    H10     18.159180   19.801716   22.037414 H          1 MOL1         0.0832
      17    H11     18.529217   18.598347   20.819879 H          1 MOL1         0.0832
      18    C7      19.347033   18.114357   22.760204 C.3        1 MOL1        -0.1685
      19    H12     18.637026   17.277264   22.723023 H          1 MOL1         0.0832
      20    H13     20.325652   17.674727   22.526433 H          1 MOL1         0.0832
      21    O1      21.154983   19.148651   20.610776 O.3        1 MOL1        -0.5509
      22    H14     21.873304   19.733524   20.294349 H          1 MOL1         0.3779
@<TRIPOS>BOND
    1     1     2    1
    2     1     3    1
    3     1     4    1
    4     4     5    1
    5     4     6    1
    6     4     7    1
    7     7     8    1
    8     7     9    1
    9     7    10    1
   10    10    11    1
   11    10    12    1
   12    10    13    1
   13    13    14    1
   14    13    15    1
   15    15    16    1
   16    15    17    1
   17     1    18    1
   18    15    18    1
   19    18    19    1
   20    18    20    1
   21    13    21    1
   22    21    22    1
@<TRIPOS>SUBSTRUCTURE
       1 MOL1            1 RESIDUE      1      MOL     
@<SCITEGIC>MOL_PROPERTY
VConf Rank
SciTegic.value.IntegerValue
165

@<SCITEGIC>MOL_PROPERTY
Conf_Id
SciTegic.value.IntegerValue
41

@<SCITEGIC>MOL_PROPERTY
Delta U+W
SciTegic.value.DoubleValue
-2.114

@<SCITEGIC>MOL_PROPERTY
U+W
SciTegic.value.DoubleValue
4.310

@<SCITEGIC>MOL_PROPERTY
Grad RMS
SciTegic.value.DoubleValue
0.000000

@<SCITEGIC>MOL_PROPERTY
U
SciTegic.value.DoubleValue
6.598

@<SCITEGIC>MOL_PROPERTY
W
SciTegic.value.DoubleValue
-2.289

@<SCITEGIC>MOL_PROPERTY
W(PB)
SciTegic.value.DoubleValue
-4.294

@<SCITEGIC>MOL_PROPERTY
W(SA)
SciTegic.value.DoubleValue
2.005

@<SCITEGIC>MOL_PROPERTY
Valence
SciTegic.value.DoubleValue
12.082

@<SCITEGIC>MOL_PROPERTY
Coulomb
SciTegic.value.DoubleValue
-7.801

@<SCITEGIC>MOL_PROPERTY
VdW
SciTegic.value.DoubleValue
2.317

@<SCITEGIC>MOL_PROPERTY
VdW6
SciTegic.value.DoubleValue
-9.658

@<SCITEGIC>MOL_PROPERTY
VdW12
SciTegic.value.DoubleValue
11.975

@<SCITEGIC>MOL_PROPERTY
Bond
SciTegic.value.DoubleValue
0.267

@<SCITEGIC>MOL_PROPERTY
Angle
SciTegic.value.DoubleValue
3.051

@<SCITEGIC>MOL_PROPERTY
Pdih
SciTegic.value.DoubleValue
8.764

@<SCITEGIC>MOL_PROPERTY
Idih
SciTegic.value.DoubleValue
0.000

@<SCITEGIC>MOL_PROPERTY
Tether
SciTegic.value.DoubleValue
0.000

@<TRIPOS>MOLECULE
guest-5_confgen4.mol2 : confsearch ligand conformer 166
          22          22           1
SMALL
USER_CHARGES
 
@<TRIPOS>ATOM
       1    C1      21.530568   20.211591   22.230454 C.3        1 MOL1        -0.1685
       2    H1      22.413521   20.846440   22.075828 H          1 MOL1         0.0832
       3    H2      21.809184   19.206827   21.884046 H          1 MOL1         0.0832
       4    C2      20.378973   20.784897   21.374571 C.3        1 MOL1        -0.1685
       5    H3      20.074138   21.761191   21.775206 H          1 MOL1         0.0832
       6    H4      20.757848   20.979879   20.362151 H          1 MOL1         0.0832
       7    C3      19.142748   19.866337   21.259612 C.3        1 MOL1        -0.1685
       8    H5      19.401581   18.977545   20.668897 H          1 MOL1         0.0832
       9    H6      18.380350   20.396920   20.673644 H          1 MOL1         0.0832
      10    C4      18.509830   19.439466   22.611788 C.3        1 MOL1        -0.1761
      11    H7      18.321938   20.322764   23.235278 H          1 MOL1         0.0832
      12    H8      17.521615   19.013471   22.396049 H          1 MOL1         0.0832
      13    C5      19.296414   18.379171   23.424864 C.3        1 MOL1         0.1218
      14    H9      18.592964   17.958392   24.157928 H          1 MOL1         0.0789
      15    C6      20.503063   18.910727   24.241312 C.3        1 MOL1        -0.1761
      16    H10     20.161196   19.098911   25.267360 H          1 MOL1         0.0832
      17    H11     21.253968   18.114579   24.329400 H          1 MOL1         0.0832
      18    C7      21.202847   20.198280   23.739905 C.3        1 MOL1        -0.1685
      19    H12     20.595586   21.076878   23.996250 H          1 MOL1         0.0832
      20    H13     22.138758   20.312856   24.303484 H          1 MOL1         0.0832
      21    O1      19.722181   17.315960   22.576794 O.3        1 MOL1        -0.5509
      22    H14     20.174617   16.662545   23.147987 H          1 MOL1         0.3779
@<TRIPOS>BOND
    1     1     2    1
    2     1     3    1
    3     1     4    1
    4     4     5    1
    5     4     6    1
    6     4     7    1
    7     7     8    1
    8     7     9    1
    9     7    10    1
   10    10    11    1
   11    10    12    1
   12    10    13    1
   13    13    14    1
   14    13    15    1
   15    15    16    1
   16    15    17    1
   17     1    18    1
   18    15    18    1
   19    18    19    1
   20    18    20    1
   21    13    21    1
   22    21    22    1
@<TRIPOS>SUBSTRUCTURE
       1 MOL1            1 RESIDUE      1      MOL     
@<SCITEGIC>MOL_PROPERTY
VConf Rank
SciTegic.value.IntegerValue
166

@<SCITEGIC>MOL_PROPERTY
Conf_Id
SciTegic.value.IntegerValue
104

@<SCITEGIC>MOL_PROPERTY
Delta U+W
SciTegic.value.DoubleValue
-1.172

@<SCITEGIC>MOL_PROPERTY
U+W
SciTegic.value.DoubleValue
5.252

@<SCITEGIC>MOL_PROPERTY
Grad RMS
SciTegic.value.DoubleValue
0.000000

@<SCITEGIC>MOL_PROPERTY
U
SciTegic.value.DoubleValue
7.482

@<SCITEGIC>MOL_PROPERTY
W
SciTegic.value.DoubleValue
-2.230

@<SCITEGIC>MOL_PROPERTY
W(PB)
SciTegic.value.DoubleValue
-4.220

@<SCITEGIC>MOL_PROPERTY
W(SA)
SciTegic.value.DoubleValue
1.990

@<SCITEGIC>MOL_PROPERTY
Valence
SciTegic.value.DoubleValue
12.309

@<SCITEGIC>MOL_PROPERTY
Coulomb
SciTegic.value.DoubleValue
-7.084

@<SCITEGIC>MOL_PROPERTY
VdW
SciTegic.value.DoubleValue
2.258

@<SCITEGIC>MOL_PROPERTY
VdW6
SciTegic.value.DoubleValue
-9.770

@<SCITEGIC>MOL_PROPERTY
VdW12
SciTegic.value.DoubleValue
12.028

@<SCITEGIC>MOL_PROPERTY
Bond
SciTegic.value.DoubleValue
0.284

@<SCITEGIC>MOL_PROPERTY
Angle
SciTegic.value.DoubleValue
3.491

@<SCITEGIC>MOL_PROPERTY
Pdih
SciTegic.value.DoubleValue
8.535

@<SCITEGIC>MOL_PROPERTY
Idih
SciTegic.value.DoubleValue
0.000

@<SCITEGIC>MOL_PROPERTY
Tether
SciTegic.value.DoubleValue
0.000

@<TRIPOS>MOLECULE
guest-5_confgen4.mol2 : confsearch ligand conformer 167
          22          22           1
SMALL
USER_CHARGES
 
@<TRIPOS>ATOM
       1    C1      21.122922   20.784769   22.280366 C.3        1 MOL1        -0.1685
       2    H1      21.625941   20.178413   21.514998 H          1 MOL1         0.0832
       3    H2      21.654184   21.746150   22.301490 H          1 MOL1         0.0832
       4    C2      21.261719   20.137163   23.677085 C.3        1 MOL1        -0.1685
       5    H3      22.260455   20.368085   24.072622 H          1 MOL1         0.0832
       6    H4      20.562469   20.619441   24.372638 H          1 MOL1         0.0832
       7    C3      21.079254   18.598960   23.725184 C.3        1 MOL1        -0.1685
       8    H5      20.751661   18.319039   24.735947 H          1 MOL1         0.0832
       9    H6      22.063639   18.128208   23.597480 H          1 MOL1         0.0832
      10    C4      20.118391   17.963485   22.683976 C.3        1 MOL1        -0.1761
      11    H7      20.636164   17.884384   21.719295 H          1 MOL1         0.0832
      12    H8      19.922829   16.927932   22.991200 H          1 MOL1         0.0832
      13    C5      18.758146   18.663599   22.461366 C.3        1 MOL1         0.1218
      14    H9      18.072446   17.917637   22.034474 H          1 MOL1         0.0789
      15    C6      18.840609   19.826664   21.447094 C.3        1 MOL1        -0.1761
      16    H10     19.255443   19.443469   20.505746 H          1 MOL1         0.0832
      17    H11     17.817684   20.147290   21.210309 H          1 MOL1         0.0832
      18    C7      19.654397   21.069568   21.884961 C.3        1 MOL1        -0.1685
      19    H12     19.654356   21.782906   21.049581 H          1 MOL1         0.0832
      20    H13     19.138957   21.580748   22.709276 H          1 MOL1         0.0832
      21    O1      18.227677   19.125879   23.693872 O.3        1 MOL1        -0.5509
      22    H14     18.924367   19.713733   24.047901 H          1 MOL1         0.3779
@<TRIPOS>BOND
    1     1     2    1
    2     1     3    1
    3     1     4    1
    4     4     5    1
    5     4     6    1
    6     4     7    1
    7     7     8    1
    8     7     9    1
    9     7    10    1
   10    10    11    1
   11    10    12    1
   12    10    13    1
   13    13    14    1
   14    13    15    1
   15    15    16    1
   16    15    17    1
   17     1    18    1
   18    15    18    1
   19    18    19    1
   20    18    20    1
   21    13    21    1
   22    21    22    1
@<TRIPOS>SUBSTRUCTURE
       1 MOL1            1 RESIDUE      1      MOL     
@<SCITEGIC>MOL_PROPERTY
VConf Rank
SciTegic.value.IntegerValue
167

@<SCITEGIC>MOL_PROPERTY
Conf_Id
SciTegic.value.IntegerValue
99

@<SCITEGIC>MOL_PROPERTY
Delta U+W
SciTegic.value.DoubleValue
-3.852

@<SCITEGIC>MOL_PROPERTY
U+W
SciTegic.value.DoubleValue
2.572

@<SCITEGIC>MOL_PROPERTY
Grad RMS
SciTegic.value.DoubleValue
0.000000

@<SCITEGIC>MOL_PROPERTY
U
SciTegic.value.DoubleValue
3.922

@<SCITEGIC>MOL_PROPERTY
W
SciTegic.value.DoubleValue
-1.350

@<SCITEGIC>MOL_PROPERTY
W(PB)
SciTegic.value.DoubleValue
-3.345

@<SCITEGIC>MOL_PROPERTY
W(SA)
SciTegic.value.DoubleValue
1.995

@<SCITEGIC>MOL_PROPERTY
Valence
SciTegic.value.DoubleValue
12.571

@<SCITEGIC>MOL_PROPERTY
Coulomb
SciTegic.value.DoubleValue
-10.581

@<SCITEGIC>MOL_PROPERTY
VdW
SciTegic.value.DoubleValue
1.932

@<SCITEGIC>MOL_PROPERTY
VdW6
SciTegic.value.DoubleValue
-10.483

@<SCITEGIC>MOL_PROPERTY
VdW12
SciTegic.value.DoubleValue
12.415

@<SCITEGIC>MOL_PROPERTY
Bond
SciTegic.value.DoubleValue
0.268

@<SCITEGIC>MOL_PROPERTY
Angle
SciTegic.value.DoubleValue
3.728

@<SCITEGIC>MOL_PROPERTY
Pdih
SciTegic.value.DoubleValue
8.575

@<SCITEGIC>MOL_PROPERTY
Idih
SciTegic.value.DoubleValue
0.000

@<SCITEGIC>MOL_PROPERTY
Tether
SciTegic.value.DoubleValue
0.000

@<TRIPOS>MOLECULE
guest-5_confgen4.mol2 : confsearch ligand conformer 168
          22          22           1
SMALL
USER_CHARGES
 
@<TRIPOS>ATOM
       1    C1      19.507653   18.314109   21.769474 C.3        1 MOL1        -0.1685
       2    H1      19.401363   17.772608   20.819331 H          1 MOL1         0.0832
       3    H2      18.985345   17.692882   22.509290 H          1 MOL1         0.0832
       4    C2      18.789573   19.687300   21.619280 C.3        1 MOL1        -0.1685
       5    H3      18.372336   19.740090   20.604185 H          1 MOL1         0.0832
       6    H4      17.918290   19.733655   22.286192 H          1 MOL1         0.0832
       7    C3      19.673545   20.942671   21.832323 C.3        1 MOL1        -0.1685
       8    H5      19.104661   21.825600   21.510558 H          1 MOL1         0.0832
       9    H6      20.535427   20.908062   21.154435 H          1 MOL1         0.0832
      10    C4      20.159788   21.194679   23.286589 C.3        1 MOL1        -0.1761
      11    H7      21.051927   21.832668   23.244194 H          1 MOL1         0.0832
      12    H8      19.400114   21.792611   23.807521 H          1 MOL1         0.0832
      13    C5      20.477127   19.966911   24.175431 C.3        1 MOL1         0.1218
      14    H9      21.010428   20.342613   25.060424 H          1 MOL1         0.0789
      15    C6      21.372689   18.874608   23.540618 C.3        1 MOL1        -0.1761
      16    H10     22.408227   19.238277   23.528457 H          1 MOL1         0.0832
      17    H11     21.375919   18.012782   24.221237 H          1 MOL1         0.0832
      18    C7      21.017928   18.371690   22.113727 C.3        1 MOL1        -0.1685
      19    H12     21.545387   18.976871   21.365990 H          1 MOL1         0.0832
      20    H13     21.438115   17.363242   21.998834 H          1 MOL1         0.0832
      21    O1      19.266718   19.384102   24.632037 O.3        1 MOL1        -0.5509
      22    H14     18.833311   19.067872   23.814058 H          1 MOL1         0.3779
@<TRIPOS>BOND
    1     1     2    1
    2     1     3    1
    3     1     4    1
    4     4     5    1
    5     4     6    1
    6     4     7    1
    7     7     8    1
    8     7     9    1
    9     7    10    1
   10    10    11    1
   11    10    12    1
   12    10    13    1
   13    13    14    1
   14    13    15    1
   15    15    16    1
   16    15    17    1
   17     1    18    1
   18    15    18    1
   19    18    19    1
   20    18    20    1
   21    13    21    1
   22    21    22    1
@<TRIPOS>SUBSTRUCTURE
       1 MOL1            1 RESIDUE      1      MOL     
@<SCITEGIC>MOL_PROPERTY
VConf Rank
SciTegic.value.IntegerValue
168

@<SCITEGIC>MOL_PROPERTY
Conf_Id
SciTegic.value.IntegerValue
98

@<SCITEGIC>MOL_PROPERTY
Delta U+W
SciTegic.value.DoubleValue
0.930

@<SCITEGIC>MOL_PROPERTY
U+W
SciTegic.value.DoubleValue
7.353

@<SCITEGIC>MOL_PROPERTY
Grad RMS
SciTegic.value.DoubleValue
0.000000

@<SCITEGIC>MOL_PROPERTY
U
SciTegic.value.DoubleValue
8.455

@<SCITEGIC>MOL_PROPERTY
W
SciTegic.value.DoubleValue
-1.102

@<SCITEGIC>MOL_PROPERTY
W(PB)
SciTegic.value.DoubleValue
-3.101

@<SCITEGIC>MOL_PROPERTY
W(SA)
SciTegic.value.DoubleValue
2.000

@<SCITEGIC>MOL_PROPERTY
Valence
SciTegic.value.DoubleValue
15.601

@<SCITEGIC>MOL_PROPERTY
Coulomb
SciTegic.value.DoubleValue
-10.573

@<SCITEGIC>MOL_PROPERTY
VdW
SciTegic.value.DoubleValue
3.427

@<SCITEGIC>MOL_PROPERTY
VdW6
SciTegic.value.DoubleValue
-11.360

@<SCITEGIC>MOL_PROPERTY
VdW12
SciTegic.value.DoubleValue
14.787

@<SCITEGIC>MOL_PROPERTY
Bond
SciTegic.value.DoubleValue
0.471

@<SCITEGIC>MOL_PROPERTY
Angle
SciTegic.value.DoubleValue
5.445

@<SCITEGIC>MOL_PROPERTY
Pdih
SciTegic.value.DoubleValue
9.685

@<SCITEGIC>MOL_PROPERTY
Idih
SciTegic.value.DoubleValue
0.000

@<SCITEGIC>MOL_PROPERTY
Tether
SciTegic.value.DoubleValue
0.000

@<TRIPOS>MOLECULE
guest-5_confgen4.mol2 : confsearch ligand conformer 169
          22          22           1
SMALL
USER_CHARGES
 
@<TRIPOS>ATOM
       1    C1      18.328300   19.831477   22.790736 C.3        1 MOL1        -0.1685
       2    H1      18.491979   20.734762   22.189017 H          1 MOL1         0.0832
       3    H2      17.243200   19.792630   22.957353 H          1 MOL1         0.0832
       4    C2      19.033022   19.981269   24.162993 C.3        1 MOL1        -0.1685
       5    H3      18.610725   20.867225   24.656575 H          1 MOL1         0.0832
       6    H4      18.771326   19.129712   24.805636 H          1 MOL1         0.0832
       7    C3      20.578583   20.138227   24.127621 C.3        1 MOL1        -0.1685
       8    H5      21.059437   19.193601   24.413062 H          1 MOL1         0.0832
       9    H6      20.868450   20.851108   24.911466 H          1 MOL1         0.0832
      10    C4      21.158758   20.625404   22.773455 C.3        1 MOL1        -0.1761
      11    H7      20.630234   21.534896   22.461827 H          1 MOL1         0.0832
      12    H8      22.196586   20.945165   22.937935 H          1 MOL1         0.0832
      13    C5      21.128256   19.592078   21.609334 C.3        1 MOL1         0.1218
      14    H9      20.750789   20.103539   20.712120 H          1 MOL1         0.0789
      15    C6      20.261366   18.330175   21.846736 C.3        1 MOL1        -0.1761
      16    H10     20.417901   17.629923   21.015953 H          1 MOL1         0.0832
      17    H11     20.617979   17.799680   22.737799 H          1 MOL1         0.0832
      18    C7      18.738445   18.584611   21.972356 C.3        1 MOL1        -0.1685
      19    H12     18.309911   18.680792   20.965419 H          1 MOL1         0.0832
      20    H13     18.271879   17.693847   22.414540 H          1 MOL1         0.0832
      21    O1      22.459253   19.154294   21.360400 O.3        1 MOL1        -0.5509
      22    H14     22.418874   18.551388   20.589003 H          1 MOL1         0.3779
@<TRIPOS>BOND
    1     1     2    1
    2     1     3    1
    3     1     4    1
    4     4     5    1
    5     4     6    1
    6     4     7    1
    7     7     8    1
    8     7     9    1
    9     7    10    1
   10    10    11    1
   11    10    12    1
   12    10    13    1
   13    13    14    1
   14    13    15    1
   15    15    16    1
   16    15    17    1
   17     1    18    1
   18    15    18    1
   19    18    19    1
   20    18    20    1
   21    13    21    1
   22    21    22    1
@<TRIPOS>SUBSTRUCTURE
       1 MOL1            1 RESIDUE      1      MOL     
@<SCITEGIC>MOL_PROPERTY
VConf Rank
SciTegic.value.IntegerValue
169

@<SCITEGIC>MOL_PROPERTY
Conf_Id
SciTegic.value.IntegerValue
141

@<SCITEGIC>MOL_PROPERTY
Delta U+W
SciTegic.value.DoubleValue
0.000

@<SCITEGIC>MOL_PROPERTY
U+W
SciTegic.value.DoubleValue
6.423

@<SCITEGIC>MOL_PROPERTY
Grad RMS
SciTegic.value.DoubleValue
0.000000

@<SCITEGIC>MOL_PROPERTY
U
SciTegic.value.DoubleValue
8.781

@<SCITEGIC>MOL_PROPERTY
W
SciTegic.value.DoubleValue
-2.358

@<SCITEGIC>MOL_PROPERTY
W(PB)
SciTegic.value.DoubleValue
-4.373

@<SCITEGIC>MOL_PROPERTY
W(SA)
SciTegic.value.DoubleValue
2.015

@<SCITEGIC>MOL_PROPERTY
Valence
SciTegic.value.DoubleValue
13.328

@<SCITEGIC>MOL_PROPERTY
Coulomb
SciTegic.value.DoubleValue
-8.387

@<SCITEGIC>MOL_PROPERTY
VdW
SciTegic.value.DoubleValue
3.840

@<SCITEGIC>MOL_PROPERTY
VdW6
SciTegic.value.DoubleValue
-9.744

@<SCITEGIC>MOL_PROPERTY
VdW12
SciTegic.value.DoubleValue
13.584

@<SCITEGIC>MOL_PROPERTY
Bond
SciTegic.value.DoubleValue
0.436

@<SCITEGIC>MOL_PROPERTY
Angle
SciTegic.value.DoubleValue
3.478

@<SCITEGIC>MOL_PROPERTY
Pdih
SciTegic.value.DoubleValue
9.415

@<SCITEGIC>MOL_PROPERTY
Idih
SciTegic.value.DoubleValue
0.000

@<SCITEGIC>MOL_PROPERTY
Tether
SciTegic.value.DoubleValue
0.000

@<TRIPOS>MOLECULE
guest-5_confgen4.mol2 : confsearch ligand conformer 170
          22          22           1
SMALL
USER_CHARGES
 
@<TRIPOS>ATOM
       1    C1      18.802844   18.397736   23.096236 C.3        1 MOL1        -0.1685
       2    H1      18.889246   17.981800   22.083250 H          1 MOL1         0.0832
       3    H2      18.108216   17.739959   23.636351 H          1 MOL1         0.0832
       4    C2      18.178199   19.813467   23.061910 C.3        1 MOL1        -0.1685
       5    H3      17.126368   19.724550   22.757608 H          1 MOL1         0.0832
       6    H4      18.160507   20.228429   24.078952 H          1 MOL1         0.0832
       7    C3      18.871641   20.817220   22.112200 C.3        1 MOL1        -0.1685
       8    H5      18.381743   21.793537   22.228958 H          1 MOL1         0.0832
       9    H6      18.694705   20.515948   21.070620 H          1 MOL1         0.0832
      10    C4      20.391675   20.995925   22.346168 C.3        1 MOL1        -0.1761
      11    H7      20.712219   21.882357   21.783163 H          1 MOL1         0.0832
      12    H8      20.597983   21.213681   23.402112 H          1 MOL1         0.0832
      13    C5      21.215298   19.776780   21.873984 C.3        1 MOL1         0.1218
      14    H9      20.709957   19.336805   21.002264 H          1 MOL1         0.0789
      15    C6      21.394521   18.671495   22.939592 C.3        1 MOL1        -0.1761
      16    H10     21.694991   17.753809   22.417654 H          1 MOL1         0.0832
      17    H11     22.235013   18.932825   23.596395 H          1 MOL1         0.0832
      18    C7      20.164728   18.358392   23.828198 C.3        1 MOL1        -0.1685
      19    H12     20.306556   17.360215   24.264491 H          1 MOL1         0.0832
      20    H13     20.141359   19.051045   24.680487 H          1 MOL1         0.0832
      21    O1      22.507246   20.221673   21.478815 O.3        1 MOL1        -0.5509
      22    H14     22.374046   20.864860   20.751363 H          1 MOL1         0.3779
@<TRIPOS>BOND
    1     1     2    1
    2     1     3    1
    3     1     4    1
    4     4     5    1
    5     4     6    1
    6     4     7    1
    7     7     8    1
    8     7     9    1
    9     7    10    1
   10    10    11    1
   11    10    12    1
   12    10    13    1
   13    13    14    1
   14    13    15    1
   15    15    16    1
   16    15    17    1
   17     1    18    1
   18    15    18    1
   19    18    19    1
   20    18    20    1
   21    13    21    1
   22    21    22    1
@<TRIPOS>SUBSTRUCTURE
       1 MOL1            1 RESIDUE      1      MOL     
@<SCITEGIC>MOL_PROPERTY
VConf Rank
SciTegic.value.IntegerValue
170

@<SCITEGIC>MOL_PROPERTY
Conf_Id
SciTegic.value.IntegerValue
144

@<SCITEGIC>MOL_PROPERTY
Delta U+W
SciTegic.value.DoubleValue
-3.291

@<SCITEGIC>MOL_PROPERTY
U+W
SciTegic.value.DoubleValue
3.132

@<SCITEGIC>MOL_PROPERTY
Grad RMS
SciTegic.value.DoubleValue
0.000000

@<SCITEGIC>MOL_PROPERTY
U
SciTegic.value.DoubleValue
5.411

@<SCITEGIC>MOL_PROPERTY
W
SciTegic.value.DoubleValue
-2.279

@<SCITEGIC>MOL_PROPERTY
W(PB)
SciTegic.value.DoubleValue
-4.300

@<SCITEGIC>MOL_PROPERTY
W(SA)
SciTegic.value.DoubleValue
2.021

@<SCITEGIC>MOL_PROPERTY
Valence
SciTegic.value.DoubleValue
11.909

@<SCITEGIC>MOL_PROPERTY
Coulomb
SciTegic.value.DoubleValue
-8.733

@<SCITEGIC>MOL_PROPERTY
VdW
SciTegic.value.DoubleValue
2.236

@<SCITEGIC>MOL_PROPERTY
VdW6
SciTegic.value.DoubleValue
-8.936

@<SCITEGIC>MOL_PROPERTY
VdW12
SciTegic.value.DoubleValue
11.172

@<SCITEGIC>MOL_PROPERTY
Bond
SciTegic.value.DoubleValue
0.223

@<SCITEGIC>MOL_PROPERTY
Angle
SciTegic.value.DoubleValue
2.457

@<SCITEGIC>MOL_PROPERTY
Pdih
SciTegic.value.DoubleValue
9.228

@<SCITEGIC>MOL_PROPERTY
Idih
SciTegic.value.DoubleValue
0.000

@<SCITEGIC>MOL_PROPERTY
Tether
SciTegic.value.DoubleValue
0.000

@<TRIPOS>MOLECULE
guest-5_confgen4.mol2 : confsearch ligand conformer 171
          22          22           1
SMALL
USER_CHARGES
 
@<TRIPOS>ATOM
       1    C1      20.131251   18.501527   21.289193 C.3        1 MOL1        -0.1685
       2    H1      20.538615   17.896046   20.468013 H          1 MOL1         0.0832
       3    H2      19.042546   18.357858   21.261594 H          1 MOL1         0.0832
       4    C2      20.499011   19.979775   21.021593 C.3        1 MOL1        -0.1685
       5    H3      21.524099   20.169905   21.367740 H          1 MOL1         0.0832
       6    H4      20.520184   20.149858   19.936410 H          1 MOL1         0.0832
       7    C3      19.538118   21.018995   21.648194 C.3        1 MOL1        -0.1685
       8    H5      18.677693   21.158885   20.979602 H          1 MOL1         0.0832
       9    H6      20.054054   21.988532   21.676922 H          1 MOL1         0.0832
      10    C4      19.000856   20.691827   23.063274 C.3        1 MOL1        -0.1761
      11    H7      18.626031   21.625353   23.504303 H          1 MOL1         0.0832
      12    H8      18.127305   20.033196   22.973791 H          1 MOL1         0.0832
      13    C5      20.030688   20.047553   24.018236 C.3        1 MOL1         0.1218
      14    H9      21.030165   20.456120   23.811868 H          1 MOL1         0.0789
      15    C6      20.065676   18.506862   23.899817 C.3        1 MOL1        -0.1761
      16    H10     20.613766   18.100375   24.760338 H          1 MOL1         0.0832
      17    H11     19.044841   18.110340   23.975665 H          1 MOL1         0.0832
      18    C7      20.727005   17.961908   22.611646 C.3        1 MOL1        -0.1685
      19    H12     21.804922   18.172336   22.638833 H          1 MOL1         0.0832
      20    H13     20.635779   16.867171   22.615886 H          1 MOL1         0.0832
      21    O1      19.667760   20.374374   25.353033 O.3        1 MOL1        -0.5509
      22    H14     18.775708   19.996831   25.497477 H          1 MOL1         0.3779
@<TRIPOS>BOND
    1     1     2    1
    2     1     3    1
    3     1     4    1
    4     4     5    1
    5     4     6    1
    6     4     7    1
    7     7     8    1
    8     7     9    1
    9     7    10    1
   10    10    11    1
   11    10    12    1
   12    10    13    1
   13    13    14    1
   14    13    15    1
   15    15    16    1
   16    15    17    1
   17     1    18    1
   18    15    18    1
   19    18    19    1
   20    18    20    1
   21    13    21    1
   22    21    22    1
@<TRIPOS>SUBSTRUCTURE
       1 MOL1            1 RESIDUE      1      MOL     
@<SCITEGIC>MOL_PROPERTY
VConf Rank
SciTegic.value.IntegerValue
171

@<SCITEGIC>MOL_PROPERTY
Conf_Id
SciTegic.value.IntegerValue
76

@<SCITEGIC>MOL_PROPERTY
Delta U+W
SciTegic.value.DoubleValue
-3.175

@<SCITEGIC>MOL_PROPERTY
U+W
SciTegic.value.DoubleValue
3.248

@<SCITEGIC>MOL_PROPERTY
Grad RMS
SciTegic.value.DoubleValue
0.000000

@<SCITEGIC>MOL_PROPERTY
U
SciTegic.value.DoubleValue
5.336

@<SCITEGIC>MOL_PROPERTY
W
SciTegic.value.DoubleValue
-2.088

@<SCITEGIC>MOL_PROPERTY
W(PB)
SciTegic.value.DoubleValue
-4.098

@<SCITEGIC>MOL_PROPERTY
W(SA)
SciTegic.value.DoubleValue
2.010

@<SCITEGIC>MOL_PROPERTY
Valence
SciTegic.value.DoubleValue
12.390

@<SCITEGIC>MOL_PROPERTY
Coulomb
SciTegic.value.DoubleValue
-9.270

@<SCITEGIC>MOL_PROPERTY
VdW
SciTegic.value.DoubleValue
2.216

@<SCITEGIC>MOL_PROPERTY
VdW6
SciTegic.value.DoubleValue
-8.967

@<SCITEGIC>MOL_PROPERTY
VdW12
SciTegic.value.DoubleValue
11.183

@<SCITEGIC>MOL_PROPERTY
Bond
SciTegic.value.DoubleValue
0.218

@<SCITEGIC>MOL_PROPERTY
Angle
SciTegic.value.DoubleValue
2.426

@<SCITEGIC>MOL_PROPERTY
Pdih
SciTegic.value.DoubleValue
9.745

@<SCITEGIC>MOL_PROPERTY
Idih
SciTegic.value.DoubleValue
0.000

@<SCITEGIC>MOL_PROPERTY
Tether
SciTegic.value.DoubleValue
0.000

@<TRIPOS>MOLECULE
guest-5_confgen4.mol2 : confsearch ligand conformer 172
          22          22           1
SMALL
USER_CHARGES
 
@<TRIPOS>ATOM
       1    C1      18.749710   20.759571   23.264582 C.3        1 MOL1        -0.1685
       2    H1      18.517745   21.745625   22.839527 H          1 MOL1         0.0832
       3    H2      17.996065   20.586558   24.044904 H          1 MOL1         0.0832
       4    C2      20.147268   20.833795   23.924883 C.3        1 MOL1        -0.1685
       5    H3      20.800858   21.483852   23.327620 H          1 MOL1         0.0832
       6    H4      20.038122   21.338422   24.894534 H          1 MOL1         0.0832
       7    C3      20.840607   19.468987   24.144253 C.3        1 MOL1        -0.1685
       8    H5      20.111452   18.698411   24.429529 H          1 MOL1         0.0832
       9    H6      21.527583   19.568366   24.995417 H          1 MOL1         0.0832
      10    C4      21.671728   19.014165   22.917691 C.3        1 MOL1        -0.1761
      11    H7      22.339232   19.829829   22.611679 H          1 MOL1         0.0832
      12    H8      22.332006   18.193302   23.226934 H          1 MOL1         0.0832
      13    C5      20.867752   18.540262   21.685565 C.3        1 MOL1         0.1218
      14    H9      21.586501   18.432215   20.860446 H          1 MOL1         0.0789
      15    C6      19.764074   19.515126   21.203878 C.3        1 MOL1        -0.1761
      16    H10     20.204835   20.495501   20.981454 H          1 MOL1         0.0832
      17    H11     19.383896   19.137503   20.245936 H          1 MOL1         0.0832
      18    C7      18.563139   19.680815   22.171101 C.3        1 MOL1        -0.1685
      19    H12     17.671777   19.944625   21.586036 H          1 MOL1         0.0832
      20    H13     18.325573   18.719322   22.644951 H          1 MOL1         0.0832
      21    O1      20.306246   17.259616   21.955160 O.3        1 MOL1        -0.5509
      22    H14     19.766051   17.021940   21.174146 H          1 MOL1         0.3779
@<TRIPOS>BOND
    1     1     2    1
    2     1     3    1
    3     1     4    1
    4     4     5    1
    5     4     6    1
    6     4     7    1
    7     7     8    1
    8     7     9    1
    9     7    10    1
   10    10    11    1
   11    10    12    1
   12    10    13    1
   13    13    14    1
   14    13    15    1
   15    15    16    1
   16    15    17    1
   17     1    18    1
   18    15    18    1
   19    18    19    1
   20    18    20    1
   21    13    21    1
   22    21    22    1
@<TRIPOS>SUBSTRUCTURE
       1 MOL1            1 RESIDUE      1      MOL     
@<SCITEGIC>MOL_PROPERTY
VConf Rank
SciTegic.value.IntegerValue
172

@<SCITEGIC>MOL_PROPERTY
Conf_Id
SciTegic.value.IntegerValue
95

@<SCITEGIC>MOL_PROPERTY
Delta U+W
SciTegic.value.DoubleValue
-2.289

@<SCITEGIC>MOL_PROPERTY
U+W
SciTegic.value.DoubleValue
4.134

@<SCITEGIC>MOL_PROPERTY
Grad RMS
SciTegic.value.DoubleValue
0.000000

@<SCITEGIC>MOL_PROPERTY
U
SciTegic.value.DoubleValue
6.373

@<SCITEGIC>MOL_PROPERTY
W
SciTegic.value.DoubleValue
-2.240

@<SCITEGIC>MOL_PROPERTY
W(PB)
SciTegic.value.DoubleValue
-4.254

@<SCITEGIC>MOL_PROPERTY
W(SA)
SciTegic.value.DoubleValue
2.015

@<SCITEGIC>MOL_PROPERTY
Valence
SciTegic.value.DoubleValue
12.093

@<SCITEGIC>MOL_PROPERTY
Coulomb
SciTegic.value.DoubleValue
-8.058

@<SCITEGIC>MOL_PROPERTY
VdW
SciTegic.value.DoubleValue
2.339

@<SCITEGIC>MOL_PROPERTY
VdW6
SciTegic.value.DoubleValue
-9.683

@<SCITEGIC>MOL_PROPERTY
VdW12
SciTegic.value.DoubleValue
12.022

@<SCITEGIC>MOL_PROPERTY
Bond
SciTegic.value.DoubleValue
0.268

@<SCITEGIC>MOL_PROPERTY
Angle
SciTegic.value.DoubleValue
3.005

@<SCITEGIC>MOL_PROPERTY
Pdih
SciTegic.value.DoubleValue
8.820

@<SCITEGIC>MOL_PROPERTY
Idih
SciTegic.value.DoubleValue
0.000

@<SCITEGIC>MOL_PROPERTY
Tether
SciTegic.value.DoubleValue
0.000

@<TRIPOS>MOLECULE
guest-5_confgen4.mol2 : confsearch ligand conformer 173
          22          22           1
SMALL
USER_CHARGES
 
@<TRIPOS>ATOM
       1    C1      18.750684   18.889183   21.510355 C.3        1 MOL1        -0.1685
       2    H1      17.820482   18.362174   21.762823 H          1 MOL1         0.0832
       3    H2      18.773629   18.944220   20.413435 H          1 MOL1         0.0832
       4    C2      19.941587   18.027529   21.993710 C.3        1 MOL1        -0.1685
       5    H3      19.675094   17.531026   22.936549 H          1 MOL1         0.0832
       6    H4      20.090749   17.216974   21.267383 H          1 MOL1         0.0832
       7    C3      21.273649   18.792331   22.173170 C.3        1 MOL1        -0.1685
       8    H5      21.399222   19.552457   21.390061 H          1 MOL1         0.0832
       9    H6      22.096977   18.077736   22.039339 H          1 MOL1         0.0832
      10    C4      21.417228   19.419635   23.582845 C.3        1 MOL1        -0.1761
      11    H7      21.201610   18.654542   24.339837 H          1 MOL1         0.0832
      12    H8      22.468246   19.695278   23.738935 H          1 MOL1         0.0832
      13    C5      20.540573   20.660134   23.869852 C.3        1 MOL1         0.1218
      14    H9      20.628151   20.868853   24.945894 H          1 MOL1         0.0789
      15    C6      19.032194   20.484997   23.562520 C.3        1 MOL1        -0.1761
      16    H10     18.629748   19.637600   24.132120 H          1 MOL1         0.0832
      17    H11     18.517634   21.375480   23.946054 H          1 MOL1         0.0832
      18    C7      18.678423   20.333826   22.060044 C.3        1 MOL1        -0.1685
      19    H12     17.657448   20.705241   21.899178 H          1 MOL1         0.0832
      20    H13     19.322747   20.987426   21.457322 H          1 MOL1         0.0832
      21    O1      21.058470   21.779480   23.157292 O.3        1 MOL1        -0.5509
      22    H14     22.011788   21.833696   23.372773 H          1 MOL1         0.3779
@<TRIPOS>BOND
    1     1     2    1
    2     1     3    1
    3     1     4    1
    4     4     5    1
    5     4     6    1
    6     4     7    1
    7     7     8    1
    8     7     9    1
    9     7    10    1
   10    10    11    1
   11    10    12    1
   12    10    13    1
   13    13    14    1
   14    13    15    1
   15    15    16    1
   16    15    17    1
   17     1    18    1
   18    15    18    1
   19    18    19    1
   20    18    20    1
   21    13    21    1
   22    21    22    1
@<TRIPOS>SUBSTRUCTURE
       1 MOL1            1 RESIDUE      1      MOL     
@<SCITEGIC>MOL_PROPERTY
VConf Rank
SciTegic.value.IntegerValue
173

@<SCITEGIC>MOL_PROPERTY
Conf_Id
SciTegic.value.IntegerValue
41

@<SCITEGIC>MOL_PROPERTY
Delta U+W
SciTegic.value.DoubleValue
-2.114

@<SCITEGIC>MOL_PROPERTY
U+W
SciTegic.value.DoubleValue
4.310

@<SCITEGIC>MOL_PROPERTY
Grad RMS
SciTegic.value.DoubleValue
0.000000

@<SCITEGIC>MOL_PROPERTY
U
SciTegic.value.DoubleValue
6.598

@<SCITEGIC>MOL_PROPERTY
W
SciTegic.value.DoubleValue
-2.289

@<SCITEGIC>MOL_PROPERTY
W(PB)
SciTegic.value.DoubleValue
-4.294

@<SCITEGIC>MOL_PROPERTY
W(SA)
SciTegic.value.DoubleValue
2.005

@<SCITEGIC>MOL_PROPERTY
Valence
SciTegic.value.DoubleValue
12.082

@<SCITEGIC>MOL_PROPERTY
Coulomb
SciTegic.value.DoubleValue
-7.801

@<SCITEGIC>MOL_PROPERTY
VdW
SciTegic.value.DoubleValue
2.317

@<SCITEGIC>MOL_PROPERTY
VdW6
SciTegic.value.DoubleValue
-9.658

@<SCITEGIC>MOL_PROPERTY
VdW12
SciTegic.value.DoubleValue
11.975

@<SCITEGIC>MOL_PROPERTY
Bond
SciTegic.value.DoubleValue
0.267

@<SCITEGIC>MOL_PROPERTY
Angle
SciTegic.value.DoubleValue
3.051

@<SCITEGIC>MOL_PROPERTY
Pdih
SciTegic.value.DoubleValue
8.764

@<SCITEGIC>MOL_PROPERTY
Idih
SciTegic.value.DoubleValue
0.000

@<SCITEGIC>MOL_PROPERTY
Tether
SciTegic.value.DoubleValue
0.000

@<TRIPOS>MOLECULE
guest-5_confgen4.mol2 : confsearch ligand conformer 174
          22          22           1
SMALL
USER_CHARGES
 
@<TRIPOS>ATOM
       1    C1      21.142813   19.077524   21.512281 C.3        1 MOL1        -0.1685
       2    H1      21.945257   19.008878   20.765339 H          1 MOL1         0.0832
       3    H2      20.810421   18.047760   21.702748 H          1 MOL1         0.0832
       4    C2      19.998181   19.917217   20.902265 C.3        1 MOL1        -0.1685
       5    H3      20.330936   20.956613   20.777719 H          1 MOL1         0.0832
       6    H4      19.790436   19.544243   19.890192 H          1 MOL1         0.0832
       7    C3      18.680362   19.891014   21.707180 C.3        1 MOL1        -0.1685
       8    H5      18.237902   18.887526   21.651230 H          1 MOL1         0.0832
       9    H6      17.964531   20.556233   21.205985 H          1 MOL1         0.0832
      10    C4      18.803922   20.335002   23.190013 C.3        1 MOL1        -0.1761
      11    H7      19.316226   21.303497   23.251809 H          1 MOL1         0.0832
      12    H8      17.789305   20.511812   23.569321 H          1 MOL1         0.0832
      13    C5      19.479254   19.320430   24.148450 C.3        1 MOL1         0.1218
      14    H9      19.208076   19.623314   25.170214 H          1 MOL1         0.0789
      15    C6      21.029038   19.279528   24.108010 C.3        1 MOL1        -0.1761
      16    H10     21.405972   19.927465   24.909983 H          1 MOL1         0.0832
      17    H11     21.367223   18.268745   24.371487 H          1 MOL1         0.0832
      18    C7      21.728415   19.709123   22.794533 C.3        1 MOL1        -0.1685
      19    H12     21.718626   20.803999   22.707551 H          1 MOL1         0.0832
      20    H13     22.787933   19.429506   22.871432 H          1 MOL1         0.0832
      21    O1      18.959177   18.010917   23.934877 O.3        1 MOL1        -0.5509
      22    H14     19.389882   17.425282   24.590189 H          1 MOL1         0.3779
@<TRIPOS>BOND
    1     1     2    1
    2     1     3    1
    3     1     4    1
    4     4     5    1
    5     4     6    1
    6     4     7    1
    7     7     8    1
    8     7     9    1
    9     7    10    1
   10    10    11    1
   11    10    12    1
   12    10    13    1
   13    13    14    1
   14    13    15    1
   15    15    16    1
   16    15    17    1
   17     1    18    1
   18    15    18    1
   19    18    19    1
   20    18    20    1
   21    13    21    1
   22    21    22    1
@<TRIPOS>SUBSTRUCTURE
       1 MOL1            1 RESIDUE      1      MOL     
@<SCITEGIC>MOL_PROPERTY
VConf Rank
SciTegic.value.IntegerValue
174

@<SCITEGIC>MOL_PROPERTY
Conf_Id
SciTegic.value.IntegerValue
104

@<SCITEGIC>MOL_PROPERTY
Delta U+W
SciTegic.value.DoubleValue
-1.172

@<SCITEGIC>MOL_PROPERTY
U+W
SciTegic.value.DoubleValue
5.252

@<SCITEGIC>MOL_PROPERTY
Grad RMS
SciTegic.value.DoubleValue
0.000000

@<SCITEGIC>MOL_PROPERTY
U
SciTegic.value.DoubleValue
7.482

@<SCITEGIC>MOL_PROPERTY
W
SciTegic.value.DoubleValue
-2.230

@<SCITEGIC>MOL_PROPERTY
W(PB)
SciTegic.value.DoubleValue
-4.220

@<SCITEGIC>MOL_PROPERTY
W(SA)
SciTegic.value.DoubleValue
1.990

@<SCITEGIC>MOL_PROPERTY
Valence
SciTegic.value.DoubleValue
12.309

@<SCITEGIC>MOL_PROPERTY
Coulomb
SciTegic.value.DoubleValue
-7.084

@<SCITEGIC>MOL_PROPERTY
VdW
SciTegic.value.DoubleValue
2.258

@<SCITEGIC>MOL_PROPERTY
VdW6
SciTegic.value.DoubleValue
-9.770

@<SCITEGIC>MOL_PROPERTY
VdW12
SciTegic.value.DoubleValue
12.028

@<SCITEGIC>MOL_PROPERTY
Bond
SciTegic.value.DoubleValue
0.284

@<SCITEGIC>MOL_PROPERTY
Angle
SciTegic.value.DoubleValue
3.491

@<SCITEGIC>MOL_PROPERTY
Pdih
SciTegic.value.DoubleValue
8.535

@<SCITEGIC>MOL_PROPERTY
Idih
SciTegic.value.DoubleValue
0.000

@<SCITEGIC>MOL_PROPERTY
Tether
SciTegic.value.DoubleValue
0.000

@<TRIPOS>MOLECULE
guest-5_confgen4.mol2 : confsearch ligand conformer 175
          22          22           1
SMALL
USER_CHARGES
 
@<TRIPOS>ATOM
       1    C1      21.328569   19.909954   23.670134 C.3        1 MOL1        -0.1685
       2    H1      20.691556   20.392688   24.423570 H          1 MOL1         0.0832
       3    H2      22.355877   19.980504   24.053019 H          1 MOL1         0.0832
       4    C2      21.271063   20.673503   22.327312 C.3        1 MOL1        -0.1685
       5    H3      21.925677   21.553263   22.396247 H          1 MOL1         0.0832
       6    H4      21.712380   20.052567   21.536734 H          1 MOL1         0.0832
       7    C3      19.866410   21.163440   21.893049 C.3        1 MOL1        -0.1685
       8    H5      19.856544   21.265564   20.799071 H          1 MOL1         0.0832
       9    H6      19.717658   22.180206   22.281619 H          1 MOL1         0.0832
      10    C4      18.646859   20.310437   22.336090 C.3        1 MOL1        -0.1761
      11    H7      18.414351   20.534552   23.385217 H          1 MOL1         0.0832
      12    H8      17.771163   20.650814   21.768374 H          1 MOL1         0.0832
      13    C5      18.761386   18.777759   22.169470 C.3        1 MOL1         0.1218
      14    H9      17.738834   18.374823   22.139290 H          1 MOL1         0.0789
      15    C6      19.475107   18.096385   23.358839 C.3        1 MOL1        -0.1761
      16    H10     18.948415   18.362891   24.284383 H          1 MOL1         0.0832
      17    H11     19.355321   17.010245   23.253023 H          1 MOL1         0.0832
      18    C7      20.982313   18.408317   23.531524 C.3        1 MOL1        -0.1685
      19    H12     21.331880   17.889085   24.434249 H          1 MOL1         0.0832
      20    H13     21.550988   17.969945   22.700310 H          1 MOL1         0.0832
      21    O1      19.420046   18.456149   20.954190 O.3        1 MOL1        -0.5509
      22    H14     20.281313   18.914430   21.021147 H          1 MOL1         0.3779
@<TRIPOS>BOND
    1     1     2    1
    2     1     3    1
    3     1     4    1
    4     4     5    1
    5     4     6    1
    6     4     7    1
    7     7     8    1
    8     7     9    1
    9     7    10    1
   10    10    11    1
   11    10    12    1
   12    10    13    1
   13    13    14    1
   14    13    15    1
   15    15    16    1
   16    15    17    1
   17     1    18    1
   18    15    18    1
   19    18    19    1
   20    18    20    1
   21    13    21    1
   22    21    22    1
@<TRIPOS>SUBSTRUCTURE
       1 MOL1            1 RESIDUE      1      MOL     
@<SCITEGIC>MOL_PROPERTY
VConf Rank
SciTegic.value.IntegerValue
175

@<SCITEGIC>MOL_PROPERTY
Conf_Id
SciTegic.value.IntegerValue
99

@<SCITEGIC>MOL_PROPERTY
Delta U+W
SciTegic.value.DoubleValue
-3.852

@<SCITEGIC>MOL_PROPERTY
U+W
SciTegic.value.DoubleValue
2.572

@<SCITEGIC>MOL_PROPERTY
Grad RMS
SciTegic.value.DoubleValue
0.000000

@<SCITEGIC>MOL_PROPERTY
U
SciTegic.value.DoubleValue
3.922

@<SCITEGIC>MOL_PROPERTY
W
SciTegic.value.DoubleValue
-1.350

@<SCITEGIC>MOL_PROPERTY
W(PB)
SciTegic.value.DoubleValue
-3.345

@<SCITEGIC>MOL_PROPERTY
W(SA)
SciTegic.value.DoubleValue
1.995

@<SCITEGIC>MOL_PROPERTY
Valence
SciTegic.value.DoubleValue
12.571

@<SCITEGIC>MOL_PROPERTY
Coulomb
SciTegic.value.DoubleValue
-10.581

@<SCITEGIC>MOL_PROPERTY
VdW
SciTegic.value.DoubleValue
1.932

@<SCITEGIC>MOL_PROPERTY
VdW6
SciTegic.value.DoubleValue
-10.483

@<SCITEGIC>MOL_PROPERTY
VdW12
SciTegic.value.DoubleValue
12.415

@<SCITEGIC>MOL_PROPERTY
Bond
SciTegic.value.DoubleValue
0.268

@<SCITEGIC>MOL_PROPERTY
Angle
SciTegic.value.DoubleValue
3.728

@<SCITEGIC>MOL_PROPERTY
Pdih
SciTegic.value.DoubleValue
8.575

@<SCITEGIC>MOL_PROPERTY
Idih
SciTegic.value.DoubleValue
0.000

@<SCITEGIC>MOL_PROPERTY
Tether
SciTegic.value.DoubleValue
0.000

@<TRIPOS>MOLECULE
guest-5_confgen4.mol2 : confsearch ligand conformer 176
          22          22           1
SMALL
USER_CHARGES
 
@<TRIPOS>ATOM
       1    C1      19.523642   18.639719   21.424803 C.3        1 MOL1        -0.1685
       2    H1      19.023295   17.740484   21.039678 H          1 MOL1         0.0832
       3    H2      19.787543   19.221364   20.531438 H          1 MOL1         0.0832
       4    C2      20.813207   18.186362   22.170014 C.3        1 MOL1        -0.1685
       5    H3      20.871109   17.090915   22.107298 H          1 MOL1         0.0832
       6    H4      21.703974   18.547750   21.638989 H          1 MOL1         0.0832
       7    C3      20.906206   18.579205   23.666602 C.3        1 MOL1        -0.1685
       8    H5      21.752825   18.040946   24.114082 H          1 MOL1         0.0832
       9    H6      20.026178   18.203737   24.203392 H          1 MOL1         0.0832
      10    C4      21.095195   20.092868   23.963145 C.3        1 MOL1        -0.1761
      11    H7      20.757517   20.286028   24.989499 H          1 MOL1         0.0832
      12    H8      22.170844   20.314164   23.965222 H          1 MOL1         0.0832
      13    C5      20.410727   21.114270   23.021657 C.3        1 MOL1         0.1218
      14    H9      20.468991   22.094090   23.516968 H          1 MOL1         0.0789
      15    C6      18.916746   20.858991   22.703859 C.3        1 MOL1        -0.1761
      16    H10     18.321559   21.142921   23.581286 H          1 MOL1         0.0832
      17    H11     18.621884   21.562111   21.913495 H          1 MOL1         0.0832
      18    C7      18.491895   19.428185   22.271311 C.3        1 MOL1        -0.1685
      19    H12     18.212622   18.841656   23.155369 H          1 MOL1         0.0832
      20    H13     17.562308   19.514368   21.692377 H          1 MOL1         0.0832
      21    O1      21.144855   21.212536   21.811433 O.3        1 MOL1        -0.5509
      22    H14     21.062749   20.323231   21.412272 H          1 MOL1         0.3779
@<TRIPOS>BOND
    1     1     2    1
    2     1     3    1
    3     1     4    1
    4     4     5    1
    5     4     6    1
    6     4     7    1
    7     7     8    1
    8     7     9    1
    9     7    10    1
   10    10    11    1
   11    10    12    1
   12    10    13    1
   13    13    14    1
   14    13    15    1
   15    15    16    1
   16    15    17    1
   17     1    18    1
   18    15    18    1
   19    18    19    1
   20    18    20    1
   21    13    21    1
   22    21    22    1
@<TRIPOS>SUBSTRUCTURE
       1 MOL1            1 RESIDUE      1      MOL     
@<SCITEGIC>MOL_PROPERTY
VConf Rank
SciTegic.value.IntegerValue
176

@<SCITEGIC>MOL_PROPERTY
Conf_Id
SciTegic.value.IntegerValue
98

@<SCITEGIC>MOL_PROPERTY
Delta U+W
SciTegic.value.DoubleValue
0.930

@<SCITEGIC>MOL_PROPERTY
U+W
SciTegic.value.DoubleValue
7.353

@<SCITEGIC>MOL_PROPERTY
Grad RMS
SciTegic.value.DoubleValue
0.000000

@<SCITEGIC>MOL_PROPERTY
U
SciTegic.value.DoubleValue
8.455

@<SCITEGIC>MOL_PROPERTY
W
SciTegic.value.DoubleValue
-1.102

@<SCITEGIC>MOL_PROPERTY
W(PB)
SciTegic.value.DoubleValue
-3.101

@<SCITEGIC>MOL_PROPERTY
W(SA)
SciTegic.value.DoubleValue
2.000

@<SCITEGIC>MOL_PROPERTY
Valence
SciTegic.value.DoubleValue
15.601

@<SCITEGIC>MOL_PROPERTY
Coulomb
SciTegic.value.DoubleValue
-10.573

@<SCITEGIC>MOL_PROPERTY
VdW
SciTegic.value.DoubleValue
3.427

@<SCITEGIC>MOL_PROPERTY
VdW6
SciTegic.value.DoubleValue
-11.360

@<SCITEGIC>MOL_PROPERTY
VdW12
SciTegic.value.DoubleValue
14.787

@<SCITEGIC>MOL_PROPERTY
Bond
SciTegic.value.DoubleValue
0.471

@<SCITEGIC>MOL_PROPERTY
Angle
SciTegic.value.DoubleValue
5.445

@<SCITEGIC>MOL_PROPERTY
Pdih
SciTegic.value.DoubleValue
9.685

@<SCITEGIC>MOL_PROPERTY
Idih
SciTegic.value.DoubleValue
0.000

@<SCITEGIC>MOL_PROPERTY
Tether
SciTegic.value.DoubleValue
0.000

@<TRIPOS>MOLECULE
guest-5_confgen4.mol2 : confsearch ligand conformer 177
          22          22           1
SMALL
USER_CHARGES
 
@<TRIPOS>ATOM
       1    C1      20.456482   20.797299   23.733850 C.3        1 MOL1        -0.1685
       2    H1      21.497463   20.474259   23.604299 H          1 MOL1         0.0832
       3    H2      20.510943   21.680570   24.384680 H          1 MOL1         0.0832
       4    C2      19.652681   19.693296   24.466816 C.3        1 MOL1        -0.1685
       5    H3      20.137097   19.521007   25.437657 H          1 MOL1         0.0832
       6    H4      18.645254   20.064619   24.698838 H          1 MOL1         0.0832
       7    C3      19.537386   18.327402   23.734910 C.3        1 MOL1        -0.1685
       8    H5      18.540279   18.222971   23.287824 H          1 MOL1         0.0832
       9    H6      19.594562   17.529547   24.487766 H          1 MOL1         0.0832
      10    C4      20.619046   18.068309   22.652970 C.3        1 MOL1        -0.1761
      11    H7      21.611673   18.236372   23.088943 H          1 MOL1         0.0832
      12    H8      20.601315   17.000508   22.396312 H          1 MOL1         0.0832
      13    C5      20.486868   18.903163   21.345523 C.3        1 MOL1         0.1218
      14    H9      21.481495   19.298955   21.094260 H          1 MOL1         0.0789
      15    C6      19.493480   20.090878   21.398173 C.3        1 MOL1        -0.1761
      16    H10     19.398586   20.519789   20.392147 H          1 MOL1         0.0832
      17    H11     18.490881   19.722745   21.646895 H          1 MOL1         0.0832
      18    C7      19.878242   21.236031   22.367909 C.3        1 MOL1        -0.1685
      19    H12     20.616519   21.884605   21.876876 H          1 MOL1         0.0832
      20    H13     18.991675   21.862380   22.536306 H          1 MOL1         0.0832
      21    O1      20.061325   18.037530   20.299211 O.3        1 MOL1        -0.5509
      22    H14     20.042002   18.573570   19.479171 H          1 MOL1         0.3779
@<TRIPOS>BOND
    1     1     2    1
    2     1     3    1
    3     1     4    1
    4     4     5    1
    5     4     6    1
    6     4     7    1
    7     7     8    1
    8     7     9    1
    9     7    10    1
   10    10    11    1
   11    10    12    1
   12    10    13    1
   13    13    14    1
   14    13    15    1
   15    15    16    1
   16    15    17    1
   17     1    18    1
   18    15    18    1
   19    18    19    1
   20    18    20    1
   21    13    21    1
   22    21    22    1
@<TRIPOS>SUBSTRUCTURE
       1 MOL1            1 RESIDUE      1      MOL     
@<SCITEGIC>MOL_PROPERTY
VConf Rank
SciTegic.value.IntegerValue
177

@<SCITEGIC>MOL_PROPERTY
Conf_Id
SciTegic.value.IntegerValue
141

@<SCITEGIC>MOL_PROPERTY
Delta U+W
SciTegic.value.DoubleValue
0.000

@<SCITEGIC>MOL_PROPERTY
U+W
SciTegic.value.DoubleValue
6.423

@<SCITEGIC>MOL_PROPERTY
Grad RMS
SciTegic.value.DoubleValue
0.000000

@<SCITEGIC>MOL_PROPERTY
U
SciTegic.value.DoubleValue
8.781

@<SCITEGIC>MOL_PROPERTY
W
SciTegic.value.DoubleValue
-2.358

@<SCITEGIC>MOL_PROPERTY
W(PB)
SciTegic.value.DoubleValue
-4.373

@<SCITEGIC>MOL_PROPERTY
W(SA)
SciTegic.value.DoubleValue
2.015

@<SCITEGIC>MOL_PROPERTY
Valence
SciTegic.value.DoubleValue
13.328

@<SCITEGIC>MOL_PROPERTY
Coulomb
SciTegic.value.DoubleValue
-8.387

@<SCITEGIC>MOL_PROPERTY
VdW
SciTegic.value.DoubleValue
3.840

@<SCITEGIC>MOL_PROPERTY
VdW6
SciTegic.value.DoubleValue
-9.744

@<SCITEGIC>MOL_PROPERTY
VdW12
SciTegic.value.DoubleValue
13.584

@<SCITEGIC>MOL_PROPERTY
Bond
SciTegic.value.DoubleValue
0.436

@<SCITEGIC>MOL_PROPERTY
Angle
SciTegic.value.DoubleValue
3.478

@<SCITEGIC>MOL_PROPERTY
Pdih
SciTegic.value.DoubleValue
9.415

@<SCITEGIC>MOL_PROPERTY
Idih
SciTegic.value.DoubleValue
0.000

@<SCITEGIC>MOL_PROPERTY
Tether
SciTegic.value.DoubleValue
0.000

@<TRIPOS>MOLECULE
guest-5_confgen4.mol2 : confsearch ligand conformer 178
          22          22           1
SMALL
USER_CHARGES
 
@<TRIPOS>ATOM
       1    C1      19.986637   19.164655   20.967548 C.3        1 MOL1        -0.1685
       2    H1      20.274094   18.145822   21.260731 H          1 MOL1         0.0832
       3    H2      19.861708   19.142774   19.876302 H          1 MOL1         0.0832
       4    C2      21.115517   20.173005   21.290836 C.3        1 MOL1        -0.1685
       5    H3      21.965804   19.971651   20.625010 H          1 MOL1         0.0832
       6    H4      20.777804   21.188977   21.044606 H          1 MOL1         0.0832
       7    C3      21.627794   20.143939   22.749280 C.3        1 MOL1        -0.1685
       8    H5      22.371511   20.943853   22.866966 H          1 MOL1         0.0832
       9    H6      22.167996   19.204073   22.927588 H          1 MOL1         0.0832
      10    C4      20.534050   20.323126   23.830388 C.3        1 MOL1        -0.1761
      11    H7      21.039931   20.515667   24.785635 H          1 MOL1         0.0832
      12    H8      19.925778   21.212861   23.622125 H          1 MOL1         0.0832
      13    C5      19.634617   19.075801   23.981479 C.3        1 MOL1         0.1218
      14    H9      20.244329   18.184678   23.774127 H          1 MOL1         0.0789
      15    C6      18.406649   19.052326   23.042949 C.3        1 MOL1        -0.1761
      16    H10     18.040780   18.018250   23.002007 H          1 MOL1         0.0832
      17    H11     17.595164   19.640890   23.491497 H          1 MOL1         0.0832
      18    C7      18.629481   19.558768   21.595915 C.3        1 MOL1        -0.1685
      19    H12     17.818132   19.163815   20.969377 H          1 MOL1         0.0832
      20    H13     18.517477   20.651181   21.567630 H          1 MOL1         0.0832
      21    O1      19.165647   19.008589   25.322661 O.3        1 MOL1        -0.5509
      22    H14     19.958158   18.947808   25.896116 H          1 MOL1         0.3779
@<TRIPOS>BOND
    1     1     2    1
    2     1     3    1
    3     1     4    1
    4     4     5    1
    5     4     6    1
    6     4     7    1
    7     7     8    1
    8     7     9    1
    9     7    10    1
   10    10    11    1
   11    10    12    1
   12    10    13    1
   13    13    14    1
   14    13    15    1
   15    15    16    1
   16    15    17    1
   17     1    18    1
   18    15    18    1
   19    18    19    1
   20    18    20    1
   21    13    21    1
   22    21    22    1
@<TRIPOS>SUBSTRUCTURE
       1 MOL1            1 RESIDUE      1      MOL     
@<SCITEGIC>MOL_PROPERTY
VConf Rank
SciTegic.value.IntegerValue
178

@<SCITEGIC>MOL_PROPERTY
Conf_Id
SciTegic.value.IntegerValue
144

@<SCITEGIC>MOL_PROPERTY
Delta U+W
SciTegic.value.DoubleValue
-3.291

@<SCITEGIC>MOL_PROPERTY
U+W
SciTegic.value.DoubleValue
3.132

@<SCITEGIC>MOL_PROPERTY
Grad RMS
SciTegic.value.DoubleValue
0.000000

@<SCITEGIC>MOL_PROPERTY
U
SciTegic.value.DoubleValue
5.411

@<SCITEGIC>MOL_PROPERTY
W
SciTegic.value.DoubleValue
-2.279

@<SCITEGIC>MOL_PROPERTY
W(PB)
SciTegic.value.DoubleValue
-4.300

@<SCITEGIC>MOL_PROPERTY
W(SA)
SciTegic.value.DoubleValue
2.021

@<SCITEGIC>MOL_PROPERTY
Valence
SciTegic.value.DoubleValue
11.909

@<SCITEGIC>MOL_PROPERTY
Coulomb
SciTegic.value.DoubleValue
-8.733

@<SCITEGIC>MOL_PROPERTY
VdW
SciTegic.value.DoubleValue
2.236

@<SCITEGIC>MOL_PROPERTY
VdW6
SciTegic.value.DoubleValue
-8.936

@<SCITEGIC>MOL_PROPERTY
VdW12
SciTegic.value.DoubleValue
11.172

@<SCITEGIC>MOL_PROPERTY
Bond
SciTegic.value.DoubleValue
0.223

@<SCITEGIC>MOL_PROPERTY
Angle
SciTegic.value.DoubleValue
2.457

@<SCITEGIC>MOL_PROPERTY
Pdih
SciTegic.value.DoubleValue
9.228

@<SCITEGIC>MOL_PROPERTY
Idih
SciTegic.value.DoubleValue
0.000

@<SCITEGIC>MOL_PROPERTY
Tether
SciTegic.value.DoubleValue
0.000

@<TRIPOS>MOLECULE
guest-5_confgen4.mol2 : confsearch ligand conformer 179
          22          22           1
SMALL
USER_CHARGES
 
@<TRIPOS>ATOM
       1    C1      18.292722   20.087726   22.718207 C.3        1 MOL1        -0.1685
       2    H1      17.232600   20.279672   22.503293 H          1 MOL1         0.0832
       3    H2      18.501249   20.576562   23.679580 H          1 MOL1         0.0832
       4    C2      19.132876   20.720739   21.584403 C.3        1 MOL1        -0.1685
       5    H3      19.165360   20.034905   20.726878 H          1 MOL1         0.0832
       6    H4      18.617974   21.620391   21.220395 H          1 MOL1         0.0832
       7    C3      20.573502   21.124050   21.981721 C.3        1 MOL1        -0.1685
       8    H5      20.549385   22.114764   22.455872 H          1 MOL1         0.0832
       9    H6      21.160334   21.248281   21.061280 H          1 MOL1         0.0832
      10    C4      21.321515   20.154170   22.929323 C.3        1 MOL1        -0.1761
      11    H7      22.395052   20.374839   22.856563 H          1 MOL1         0.0832
      12    H8      21.041610   20.376732   23.967115 H          1 MOL1         0.0832
      13    C5      21.083236   18.653895   22.646496 C.3        1 MOL1         0.1218
      14    H9      20.963612   18.497522   21.564966 H          1 MOL1         0.0789
      15    C6      19.846950   18.099726   23.390454 C.3        1 MOL1        -0.1761
      16    H10     19.878895   17.002467   23.356814 H          1 MOL1         0.0832
      17    H11     19.905634   18.372422   24.452188 H          1 MOL1         0.0832
      18    C7      18.480960   18.555329   22.824581 C.3        1 MOL1        -0.1685
      19    H12     18.325584   18.099279   21.837260 H          1 MOL1         0.0832
      20    H13     17.689780   18.149214   23.469478 H          1 MOL1         0.0832
      21    O1      22.221721   17.928930   23.092016 O.3        1 MOL1        -0.5509
      22    H14     22.295520   18.094013   24.054544 H          1 MOL1         0.3779
@<TRIPOS>BOND
    1     1     2    1
    2     1     3    1
    3     1     4    1
    4     4     5    1
    5     4     6    1
    6     4     7    1
    7     7     8    1
    8     7     9    1
    9     7    10    1
   10    10    11    1
   11    10    12    1
   12    10    13    1
   13    13    14    1
   14    13    15    1
   15    15    16    1
   16    15    17    1
   17     1    18    1
   18    15    18    1
   19    18    19    1
   20    18    20    1
   21    13    21    1
   22    21    22    1
@<TRIPOS>SUBSTRUCTURE
       1 MOL1            1 RESIDUE      1      MOL     
@<SCITEGIC>MOL_PROPERTY
VConf Rank
SciTegic.value.IntegerValue
179

@<SCITEGIC>MOL_PROPERTY
Conf_Id
SciTegic.value.IntegerValue
76

@<SCITEGIC>MOL_PROPERTY
Delta U+W
SciTegic.value.DoubleValue
-3.175

@<SCITEGIC>MOL_PROPERTY
U+W
SciTegic.value.DoubleValue
3.248

@<SCITEGIC>MOL_PROPERTY
Grad RMS
SciTegic.value.DoubleValue
0.000000

@<SCITEGIC>MOL_PROPERTY
U
SciTegic.value.DoubleValue
5.336

@<SCITEGIC>MOL_PROPERTY
W
SciTegic.value.DoubleValue
-2.088

@<SCITEGIC>MOL_PROPERTY
W(PB)
SciTegic.value.DoubleValue
-4.098

@<SCITEGIC>MOL_PROPERTY
W(SA)
SciTegic.value.DoubleValue
2.010

@<SCITEGIC>MOL_PROPERTY
Valence
SciTegic.value.DoubleValue
12.390

@<SCITEGIC>MOL_PROPERTY
Coulomb
SciTegic.value.DoubleValue
-9.270

@<SCITEGIC>MOL_PROPERTY
VdW
SciTegic.value.DoubleValue
2.216

@<SCITEGIC>MOL_PROPERTY
VdW6
SciTegic.value.DoubleValue
-8.967

@<SCITEGIC>MOL_PROPERTY
VdW12
SciTegic.value.DoubleValue
11.183

@<SCITEGIC>MOL_PROPERTY
Bond
SciTegic.value.DoubleValue
0.218

@<SCITEGIC>MOL_PROPERTY
Angle
SciTegic.value.DoubleValue
2.426

@<SCITEGIC>MOL_PROPERTY
Pdih
SciTegic.value.DoubleValue
9.745

@<SCITEGIC>MOL_PROPERTY
Idih
SciTegic.value.DoubleValue
0.000

@<SCITEGIC>MOL_PROPERTY
Tether
SciTegic.value.DoubleValue
0.000

@<TRIPOS>MOLECULE
guest-5_confgen4.mol2 : confsearch ligand conformer 180
          22          22           1
SMALL
USER_CHARGES
 
@<TRIPOS>ATOM
       1    C1      18.944500   18.996593   24.080068 C.3        1 MOL1        -0.1685
       2    H1      19.036865   19.239537   25.147414 H          1 MOL1         0.0832
       3    H2      18.011232   18.425088   23.984114 H          1 MOL1         0.0832
       4    C2      20.132524   18.086531   23.686289 C.3        1 MOL1        -0.1685
       5    H3      21.031785   18.400356   24.233393 H          1 MOL1         0.0832
       6    H4      19.913273   17.070009   24.040403 H          1 MOL1         0.0832
       7    C3      20.443336   18.034787   22.172268 C.3        1 MOL1        -0.1685
       8    H5      19.518734   18.059854   21.579547 H          1 MOL1         0.0832
       9    H6      20.918700   17.068915   21.954525 H          1 MOL1         0.0832
      10    C4      21.417626   19.152538   21.721191 C.3        1 MOL1        -0.1761
      11    H7      22.298352   19.149355   22.376038 H          1 MOL1         0.0832
      12    H8      21.794083   18.905894   20.719762 H          1 MOL1         0.0832
      13    C5      20.838604   20.584843   21.672878 C.3        1 MOL1         0.1218
      14    H9      21.688285   21.265182   21.517063 H          1 MOL1         0.0789
      15    C6      20.115096   21.047189   22.962552 C.3        1 MOL1        -0.1761
      16    H10     20.797099   20.971351   23.819289 H          1 MOL1         0.0832
      17    H11     19.895151   22.116994   22.853329 H          1 MOL1         0.0832
      18    C7      18.787688   20.308334   23.274481 C.3        1 MOL1        -0.1685
      19    H12     18.135438   20.980361   23.848390 H          1 MOL1         0.0832
      20    H13     18.244089   20.101024   22.343373 H          1 MOL1         0.0832
      21    O1      19.966096   20.701354   20.553424 O.3        1 MOL1        -0.5509
      22    H14     19.583665   21.601721   20.590435 H          1 MOL1         0.3779
@<TRIPOS>BOND
    1     1     2    1
    2     1     3    1
    3     1     4    1
    4     4     5    1
    5     4     6    1
    6     4     7    1
    7     7     8    1
    8     7     9    1
    9     7    10    1
   10    10    11    1
   11    10    12    1
   12    10    13    1
   13    13    14    1
   14    13    15    1
   15    15    16    1
   16    15    17    1
   17     1    18    1
   18    15    18    1
   19    18    19    1
   20    18    20    1
   21    13    21    1
   22    21    22    1
@<TRIPOS>SUBSTRUCTURE
       1 MOL1            1 RESIDUE      1      MOL     
@<SCITEGIC>MOL_PROPERTY
VConf Rank
SciTegic.value.IntegerValue
180

@<SCITEGIC>MOL_PROPERTY
Conf_Id
SciTegic.value.IntegerValue
95

@<SCITEGIC>MOL_PROPERTY
Delta U+W
SciTegic.value.DoubleValue
-2.289

@<SCITEGIC>MOL_PROPERTY
U+W
SciTegic.value.DoubleValue
4.134

@<SCITEGIC>MOL_PROPERTY
Grad RMS
SciTegic.value.DoubleValue
0.000000

@<SCITEGIC>MOL_PROPERTY
U
SciTegic.value.DoubleValue
6.373

@<SCITEGIC>MOL_PROPERTY
W
SciTegic.value.DoubleValue
-2.240

@<SCITEGIC>MOL_PROPERTY
W(PB)
SciTegic.value.DoubleValue
-4.254

@<SCITEGIC>MOL_PROPERTY
W(SA)
SciTegic.value.DoubleValue
2.015

@<SCITEGIC>MOL_PROPERTY
Valence
SciTegic.value.DoubleValue
12.093

@<SCITEGIC>MOL_PROPERTY
Coulomb
SciTegic.value.DoubleValue
-8.058

@<SCITEGIC>MOL_PROPERTY
VdW
SciTegic.value.DoubleValue
2.339

@<SCITEGIC>MOL_PROPERTY
VdW6
SciTegic.value.DoubleValue
-9.683

@<SCITEGIC>MOL_PROPERTY
VdW12
SciTegic.value.DoubleValue
12.022

@<SCITEGIC>MOL_PROPERTY
Bond
SciTegic.value.DoubleValue
0.268

@<SCITEGIC>MOL_PROPERTY
Angle
SciTegic.value.DoubleValue
3.005

@<SCITEGIC>MOL_PROPERTY
Pdih
SciTegic.value.DoubleValue
8.820

@<SCITEGIC>MOL_PROPERTY
Idih
SciTegic.value.DoubleValue
0.000

@<SCITEGIC>MOL_PROPERTY
Tether
SciTegic.value.DoubleValue
0.000

@<TRIPOS>MOLECULE
guest-5_confgen4.mol2 : confsearch ligand conformer 181
          22          22           1
SMALL
USER_CHARGES
 
@<TRIPOS>ATOM
       1    C1      18.530625   20.296024   23.663465 C.3        1 MOL1        -0.1685
       2    H1      18.360334   21.316882   24.031710 H          1 MOL1         0.0832
       3    H2      17.625149   19.730753   23.923022 H          1 MOL1         0.0832
       4    C2      19.732353   19.698022   24.433252 C.3        1 MOL1        -0.1685
       5    H3      20.474057   20.485703   24.622761 H          1 MOL1         0.0832
       6    H4      19.378025   19.384213   25.424602 H          1 MOL1         0.0832
       7    C3      20.421026   18.497662   23.743047 C.3        1 MOL1        -0.1685
       8    H5      19.682918   17.853195   23.246379 H          1 MOL1         0.0832
       9    H6      20.889801   17.880651   24.521489 H          1 MOL1         0.0832
      10    C4      21.531201   18.933672   22.753746 C.3        1 MOL1        -0.1761
      11    H7      22.201548   19.642856   23.256328 H          1 MOL1         0.0832
      12    H8      22.154271   18.061042   22.518620 H          1 MOL1         0.0832
      13    C5      21.052347   19.562424   21.425174 C.3        1 MOL1         0.1218
      14    H9      21.944035   19.969480   20.926878 H          1 MOL1         0.0789
      15    C6      20.043769   20.728854   21.575330 C.3        1 MOL1        -0.1761
      16    H10     20.478361   21.522217   22.196774 H          1 MOL1         0.0832
      17    H11     19.906823   21.169311   20.579301 H          1 MOL1         0.0832
      18    C7      18.648354   20.328099   22.120907 C.3        1 MOL1        -0.1685
      19    H12     17.903408   21.039835   21.740509 H          1 MOL1         0.0832
      20    H13     18.353263   19.353169   21.710964 H          1 MOL1         0.0832
      21    O1      20.504009   18.545494   20.592065 O.3        1 MOL1        -0.5509
      22    H14     21.170660   17.830257   20.545169 H          1 MOL1         0.3779
@<TRIPOS>BOND
    1     1     2    1
    2     1     3    1
    3     1     4    1
    4     4     5    1
    5     4     6    1
    6     4     7    1
    7     7     8    1
    8     7     9    1
    9     7    10    1
   10    10    11    1
   11    10    12    1
   12    10    13    1
   13    13    14    1
   14    13    15    1
   15    15    16    1
   16    15    17    1
   17     1    18    1
   18    15    18    1
   19    18    19    1
   20    18    20    1
   21    13    21    1
   22    21    22    1
@<TRIPOS>SUBSTRUCTURE
       1 MOL1            1 RESIDUE      1      MOL     
@<SCITEGIC>MOL_PROPERTY
VConf Rank
SciTegic.value.IntegerValue
181

@<SCITEGIC>MOL_PROPERTY
Conf_Id
SciTegic.value.IntegerValue
41

@<SCITEGIC>MOL_PROPERTY
Delta U+W
SciTegic.value.DoubleValue
-2.114

@<SCITEGIC>MOL_PROPERTY
U+W
SciTegic.value.DoubleValue
4.310

@<SCITEGIC>MOL_PROPERTY
Grad RMS
SciTegic.value.DoubleValue
0.000000

@<SCITEGIC>MOL_PROPERTY
U
SciTegic.value.DoubleValue
6.598

@<SCITEGIC>MOL_PROPERTY
W
SciTegic.value.DoubleValue
-2.289

@<SCITEGIC>MOL_PROPERTY
W(PB)
SciTegic.value.DoubleValue
-4.294

@<SCITEGIC>MOL_PROPERTY
W(SA)
SciTegic.value.DoubleValue
2.005

@<SCITEGIC>MOL_PROPERTY
Valence
SciTegic.value.DoubleValue
12.082

@<SCITEGIC>MOL_PROPERTY
Coulomb
SciTegic.value.DoubleValue
-7.801

@<SCITEGIC>MOL_PROPERTY
VdW
SciTegic.value.DoubleValue
2.317

@<SCITEGIC>MOL_PROPERTY
VdW6
SciTegic.value.DoubleValue
-9.658

@<SCITEGIC>MOL_PROPERTY
VdW12
SciTegic.value.DoubleValue
11.975

@<SCITEGIC>MOL_PROPERTY
Bond
SciTegic.value.DoubleValue
0.267

@<SCITEGIC>MOL_PROPERTY
Angle
SciTegic.value.DoubleValue
3.051

@<SCITEGIC>MOL_PROPERTY
Pdih
SciTegic.value.DoubleValue
8.764

@<SCITEGIC>MOL_PROPERTY
Idih
SciTegic.value.DoubleValue
0.000

@<SCITEGIC>MOL_PROPERTY
Tether
SciTegic.value.DoubleValue
0.000

@<TRIPOS>MOLECULE
guest-5_confgen4.mol2 : confsearch ligand conformer 182
          22          22           1
SMALL
USER_CHARGES
 
@<TRIPOS>ATOM
       1    C1      21.393541   18.514530   22.850823 C.3        1 MOL1        -0.1685
       2    H1      22.153894   17.791736   23.176371 H          1 MOL1         0.0832
       3    H2      21.464534   18.563934   21.755517 H          1 MOL1         0.0832
       4    C2      21.737965   19.881696   23.482976 C.3        1 MOL1        -0.1685
       5    H3      21.600816   19.828285   24.571516 H          1 MOL1         0.0832
       6    H4      22.806009   20.082769   23.323564 H          1 MOL1         0.0832
       7    C3      20.932393   21.073042   22.919975 C.3        1 MOL1        -0.1685
       8    H5      21.231885   21.257660   21.879729 H          1 MOL1         0.0832
       9    H6      21.227577   21.973527   23.475058 H          1 MOL1         0.0832
      10    C4      19.389067   20.927631   23.010446 C.3        1 MOL1        -0.1761
      11    H7      19.094716   20.666463   24.034852 H          1 MOL1         0.0832
      12    H8      18.950697   21.915429   22.818952 H          1 MOL1         0.0832
      13    C5      18.740469   19.938262   22.008197 C.3        1 MOL1         0.1218
      14    H9      17.668474   20.181091   21.974454 H          1 MOL1         0.0789
      15    C6      18.830596   18.436634   22.385198 C.3        1 MOL1        -0.1761
      16    H10     17.899577   18.159333   22.896440 H          1 MOL1         0.0832
      17    H11     18.843735   17.837060   21.465519 H          1 MOL1         0.0832
      18    C7      20.008079   17.987939   23.285813 C.3        1 MOL1        -0.1685
      19    H12     19.811455   18.275259   24.327542 H          1 MOL1         0.0832
      20    H13     20.033127   16.889739   23.283176 H          1 MOL1         0.0832
      21    O1      19.268618   20.136743   20.699539 O.3        1 MOL1        -0.5509
      22    H14     18.796663   19.516869   20.107150 H          1 MOL1         0.3779
@<TRIPOS>BOND
    1     1     2    1
    2     1     3    1
    3     1     4    1
    4     4     5    1
    5     4     6    1
    6     4     7    1
    7     7     8    1
    8     7     9    1
    9     7    10    1
   10    10    11    1
   11    10    12    1
   12    10    13    1
   13    13    14    1
   14    13    15    1
   15    15    16    1
   16    15    17    1
   17     1    18    1
   18    15    18    1
   19    18    19    1
   20    18    20    1
   21    13    21    1
   22    21    22    1
@<TRIPOS>SUBSTRUCTURE
       1 MOL1            1 RESIDUE      1      MOL     
@<SCITEGIC>MOL_PROPERTY
VConf Rank
SciTegic.value.IntegerValue
182

@<SCITEGIC>MOL_PROPERTY
Conf_Id
SciTegic.value.IntegerValue
104

@<SCITEGIC>MOL_PROPERTY
Delta U+W
SciTegic.value.DoubleValue
-1.172

@<SCITEGIC>MOL_PROPERTY
U+W
SciTegic.value.DoubleValue
5.252

@<SCITEGIC>MOL_PROPERTY
Grad RMS
SciTegic.value.DoubleValue
0.000000

@<SCITEGIC>MOL_PROPERTY
U
SciTegic.value.DoubleValue
7.482

@<SCITEGIC>MOL_PROPERTY
W
SciTegic.value.DoubleValue
-2.230

@<SCITEGIC>MOL_PROPERTY
W(PB)
SciTegic.value.DoubleValue
-4.220

@<SCITEGIC>MOL_PROPERTY
W(SA)
SciTegic.value.DoubleValue
1.990

@<SCITEGIC>MOL_PROPERTY
Valence
SciTegic.value.DoubleValue
12.309

@<SCITEGIC>MOL_PROPERTY
Coulomb
SciTegic.value.DoubleValue
-7.084

@<SCITEGIC>MOL_PROPERTY
VdW
SciTegic.value.DoubleValue
2.258

@<SCITEGIC>MOL_PROPERTY
VdW6
SciTegic.value.DoubleValue
-9.770

@<SCITEGIC>MOL_PROPERTY
VdW12
SciTegic.value.DoubleValue
12.028

@<SCITEGIC>MOL_PROPERTY
Bond
SciTegic.value.DoubleValue
0.284

@<SCITEGIC>MOL_PROPERTY
Angle
SciTegic.value.DoubleValue
3.491

@<SCITEGIC>MOL_PROPERTY
Pdih
SciTegic.value.DoubleValue
8.535

@<SCITEGIC>MOL_PROPERTY
Idih
SciTegic.value.DoubleValue
0.000

@<SCITEGIC>MOL_PROPERTY
Tether
SciTegic.value.DoubleValue
0.000

@<TRIPOS>MOLECULE
guest-5_confgen4.mol2 : confsearch ligand conformer 183
          22          22           1
SMALL
USER_CHARGES
 
@<TRIPOS>ATOM
       1    C1      21.122299   19.315348   21.439572 C.3        1 MOL1        -0.1685
       2    H1      20.409862   18.695450   20.878641 H          1 MOL1         0.0832
       3    H2      22.047228   19.324090   20.846807 H          1 MOL1         0.0832
       4    C2      21.445926   18.680527   22.811342 C.3        1 MOL1        -0.1685
       5    H3      22.179895   17.876823   22.661016 H          1 MOL1         0.0832
       6    H4      21.958547   19.418797   23.441829 H          1 MOL1         0.0832
       7    C3      20.238483   18.080047   23.575003 C.3        1 MOL1        -0.1685
       8    H5      20.470711   18.081330   24.648960 H          1 MOL1         0.0832
       9    H6      20.144668   17.020879   23.298793 H          1 MOL1         0.0832
      10    C4      18.853393   18.745796   23.352503 C.3        1 MOL1        -0.1761
      11    H7      18.437809   18.398956   22.397543 H          1 MOL1         0.0832
      12    H8      18.167216   18.364953   24.120046 H          1 MOL1         0.0832
      13    C5      18.800902   20.290520   23.384937 C.3        1 MOL1         0.1218
      14    H9      17.763880   20.577779   23.610655 H          1 MOL1         0.0789
      15    C6      19.156060   20.931840   22.024481 C.3        1 MOL1        -0.1761
      16    H10     18.486622   20.521895   21.257110 H          1 MOL1         0.0832
      17    H11     18.921517   22.002917   22.079524 H          1 MOL1         0.0832
      18    C7      20.621321   20.775260   21.547738 C.3        1 MOL1        -0.1685
      19    H12     20.704365   21.242610   20.557083 H          1 MOL1         0.0832
      20    H13     21.289507   21.350994   22.202365 H          1 MOL1         0.0832
      21    O1      19.651668   20.797102   24.401668 O.3        1 MOL1        -0.5509
      22    H14     20.531830   20.433607   24.179241 H          1 MOL1         0.3779
@<TRIPOS>BOND
    1     1     2    1
    2     1     3    1
    3     1     4    1
    4     4     5    1
    5     4     6    1
    6     4     7    1
    7     7     8    1
    8     7     9    1
    9     7    10    1
   10    10    11    1
   11    10    12    1
   12    10    13    1
   13    13    14    1
   14    13    15    1
   15    15    16    1
   16    15    17    1
   17     1    18    1
   18    15    18    1
   19    18    19    1
   20    18    20    1
   21    13    21    1
   22    21    22    1
@<TRIPOS>SUBSTRUCTURE
       1 MOL1            1 RESIDUE      1      MOL     
@<SCITEGIC>MOL_PROPERTY
VConf Rank
SciTegic.value.IntegerValue
183

@<SCITEGIC>MOL_PROPERTY
Conf_Id
SciTegic.value.IntegerValue
99

@<SCITEGIC>MOL_PROPERTY
Delta U+W
SciTegic.value.DoubleValue
-3.852

@<SCITEGIC>MOL_PROPERTY
U+W
SciTegic.value.DoubleValue
2.572

@<SCITEGIC>MOL_PROPERTY
Grad RMS
SciTegic.value.DoubleValue
0.000000

@<SCITEGIC>MOL_PROPERTY
U
SciTegic.value.DoubleValue
3.922

@<SCITEGIC>MOL_PROPERTY
W
SciTegic.value.DoubleValue
-1.350

@<SCITEGIC>MOL_PROPERTY
W(PB)
SciTegic.value.DoubleValue
-3.345

@<SCITEGIC>MOL_PROPERTY
W(SA)
SciTegic.value.DoubleValue
1.995

@<SCITEGIC>MOL_PROPERTY
Valence
SciTegic.value.DoubleValue
12.571

@<SCITEGIC>MOL_PROPERTY
Coulomb
SciTegic.value.DoubleValue
-10.581

@<SCITEGIC>MOL_PROPERTY
VdW
SciTegic.value.DoubleValue
1.932

@<SCITEGIC>MOL_PROPERTY
VdW6
SciTegic.value.DoubleValue
-10.483

@<SCITEGIC>MOL_PROPERTY
VdW12
SciTegic.value.DoubleValue
12.415

@<SCITEGIC>MOL_PROPERTY
Bond
SciTegic.value.DoubleValue
0.268

@<SCITEGIC>MOL_PROPERTY
Angle
SciTegic.value.DoubleValue
3.728

@<SCITEGIC>MOL_PROPERTY
Pdih
SciTegic.value.DoubleValue
8.575

@<SCITEGIC>MOL_PROPERTY
Idih
SciTegic.value.DoubleValue
0.000

@<SCITEGIC>MOL_PROPERTY
Tether
SciTegic.value.DoubleValue
0.000

@<TRIPOS>MOLECULE
guest-5_confgen4.mol2 : confsearch ligand conformer 184
          22          22           1
SMALL
USER_CHARGES
 
@<TRIPOS>ATOM
       1    C1      20.670423   19.440741   21.127208 C.3        1 MOL1        -0.1685
       2    H1      21.499530   19.330291   20.414696 H          1 MOL1         0.0832
       3    H2      19.763063   19.436389   20.508553 H          1 MOL1         0.0832
       4    C2      20.830040   20.817857   21.835675 C.3        1 MOL1        -0.1685
       5    H3      21.728141   21.303534   21.429692 H          1 MOL1         0.0832
       6    H4      20.000195   21.482881   21.561534 H          1 MOL1         0.0832
       7    C3      20.972905   20.775167   23.378568 C.3        1 MOL1        -0.1685
       8    H5      21.270130   21.773757   23.726707 H          1 MOL1         0.0832
       9    H6      21.812785   20.125681   23.654865 H          1 MOL1         0.0832
      10    C4      19.702697   20.354890   24.168990 C.3        1 MOL1        -0.1761
      11    H7      20.017761   19.987214   25.154023 H          1 MOL1         0.0832
      12    H8      19.107146   21.254894   24.372233 H          1 MOL1         0.0832
      13    C5      18.758781   19.304848   23.532914 C.3        1 MOL1         0.1218
      14    H9      18.065258   18.979532   24.321564 H          1 MOL1         0.0789
      15    C6      19.432684   18.028428   22.971888 C.3        1 MOL1        -0.1761
      16    H10     19.715627   17.385664   23.815416 H          1 MOL1         0.0832
      17    H11     18.667331   17.464864   22.421771 H          1 MOL1         0.0832
      18    C7      20.673852   18.196860   22.052143 C.3        1 MOL1        -0.1685
      19    H12     21.588007   18.188863   22.658629 H          1 MOL1         0.0832
      20    H13     20.751229   17.298654   21.424478 H          1 MOL1         0.0832
      21    O1      17.980218   19.917769   22.517330 O.3        1 MOL1        -0.5509
      22    H14     18.638069   20.187124   21.845309 H          1 MOL1         0.3779
@<TRIPOS>BOND
    1     1     2    1
    2     1     3    1
    3     1     4    1
    4     4     5    1
    5     4     6    1
    6     4     7    1
    7     7     8    1
    8     7     9    1
    9     7    10    1
   10    10    11    1
   11    10    12    1
   12    10    13    1
   13    13    14    1
   14    13    15    1
   15    15    16    1
   16    15    17    1
   17     1    18    1
   18    15    18    1
   19    18    19    1
   20    18    20    1
   21    13    21    1
   22    21    22    1
@<TRIPOS>SUBSTRUCTURE
       1 MOL1            1 RESIDUE      1      MOL     
@<SCITEGIC>MOL_PROPERTY
VConf Rank
SciTegic.value.IntegerValue
184

@<SCITEGIC>MOL_PROPERTY
Conf_Id
SciTegic.value.IntegerValue
98

@<SCITEGIC>MOL_PROPERTY
Delta U+W
SciTegic.value.DoubleValue
0.930

@<SCITEGIC>MOL_PROPERTY
U+W
SciTegic.value.DoubleValue
7.353

@<SCITEGIC>MOL_PROPERTY
Grad RMS
SciTegic.value.DoubleValue
0.000000

@<SCITEGIC>MOL_PROPERTY
U
SciTegic.value.DoubleValue
8.455

@<SCITEGIC>MOL_PROPERTY
W
SciTegic.value.DoubleValue
-1.102

@<SCITEGIC>MOL_PROPERTY
W(PB)
SciTegic.value.DoubleValue
-3.101

@<SCITEGIC>MOL_PROPERTY
W(SA)
SciTegic.value.DoubleValue
2.000

@<SCITEGIC>MOL_PROPERTY
Valence
SciTegic.value.DoubleValue
15.601

@<SCITEGIC>MOL_PROPERTY
Coulomb
SciTegic.value.DoubleValue
-10.573

@<SCITEGIC>MOL_PROPERTY
VdW
SciTegic.value.DoubleValue
3.427

@<SCITEGIC>MOL_PROPERTY
VdW6
SciTegic.value.DoubleValue
-11.360

@<SCITEGIC>MOL_PROPERTY
VdW12
SciTegic.value.DoubleValue
14.787

@<SCITEGIC>MOL_PROPERTY
Bond
SciTegic.value.DoubleValue
0.471

@<SCITEGIC>MOL_PROPERTY
Angle
SciTegic.value.DoubleValue
5.445

@<SCITEGIC>MOL_PROPERTY
Pdih
SciTegic.value.DoubleValue
9.685

@<SCITEGIC>MOL_PROPERTY
Idih
SciTegic.value.DoubleValue
0.000

@<SCITEGIC>MOL_PROPERTY
Tether
SciTegic.value.DoubleValue
0.000

@<TRIPOS>MOLECULE
guest-5_confgen4.mol2 : confsearch ligand conformer 185
          22          22           1
SMALL
USER_CHARGES
 
@<TRIPOS>ATOM
       1    C1      20.390070   21.089814   22.027978 C.3        1 MOL1        -0.1685
       2    H1      21.245665   21.103773   22.715396 H          1 MOL1         0.0832
       3    H2      20.469365   22.023723   21.455058 H          1 MOL1         0.0832
       4    C2      19.067999   21.117769   22.836376 C.3        1 MOL1        -0.1685
       5    H3      19.071730   22.032522   23.444725 H          1 MOL1         0.0832
       6    H4      18.218268   21.221804   22.148075 H          1 MOL1         0.0832
       7    C3      18.815086   19.910068   23.780907 C.3        1 MOL1        -0.1685
       8    H5      18.080716   19.228645   23.332155 H          1 MOL1         0.0832
       9    H6      18.332327   20.284487   24.693808 H          1 MOL1         0.0832
      10    C4      20.084124   19.111963   24.181259 C.3        1 MOL1        -0.1761
      11    H7      20.838674   19.807048   24.570022 H          1 MOL1         0.0832
      12    H8      19.830974   18.466033   25.032773 H          1 MOL1         0.0832
      13    C5      20.721480   18.240474   23.059584 C.3        1 MOL1         0.1218
      14    H9      21.807332   18.413204   23.072127 H          1 MOL1         0.0789
      15    C6      20.206883   18.504533   21.622322 C.3        1 MOL1        -0.1761
      16    H10     20.636441   17.752974   20.947270 H          1 MOL1         0.0832
      17    H11     19.123688   18.338307   21.581750 H          1 MOL1         0.0832
      18    C7      20.536375   19.904028   21.045559 C.3        1 MOL1        -0.1685
      19    H12     21.567846   19.898847   20.667597 H          1 MOL1         0.0832
      20    H13     19.895782   20.079744   20.170668 H          1 MOL1         0.0832
      21    O1      20.472667   16.871157   23.356636 O.3        1 MOL1        -0.5509
      22    H14     20.931764   16.344885   22.669289 H          1 MOL1         0.3779
@<TRIPOS>BOND
    1     1     2    1
    2     1     3    1
    3     1     4    1
    4     4     5    1
    5     4     6    1
    6     4     7    1
    7     7     8    1
    8     7     9    1
    9     7    10    1
   10    10    11    1
   11    10    12    1
   12    10    13    1
   13    13    14    1
   14    13    15    1
   15    15    16    1
   16    15    17    1
   17     1    18    1
   18    15    18    1
   19    18    19    1
   20    18    20    1
   21    13    21    1
   22    21    22    1
@<TRIPOS>SUBSTRUCTURE
       1 MOL1            1 RESIDUE      1      MOL     
@<SCITEGIC>MOL_PROPERTY
VConf Rank
SciTegic.value.IntegerValue
185

@<SCITEGIC>MOL_PROPERTY
Conf_Id
SciTegic.value.IntegerValue
141

@<SCITEGIC>MOL_PROPERTY
Delta U+W
SciTegic.value.DoubleValue
0.000

@<SCITEGIC>MOL_PROPERTY
U+W
SciTegic.value.DoubleValue
6.423

@<SCITEGIC>MOL_PROPERTY
Grad RMS
SciTegic.value.DoubleValue
0.000000

@<SCITEGIC>MOL_PROPERTY
U
SciTegic.value.DoubleValue
8.781

@<SCITEGIC>MOL_PROPERTY
W
SciTegic.value.DoubleValue
-2.358

@<SCITEGIC>MOL_PROPERTY
W(PB)
SciTegic.value.DoubleValue
-4.373

@<SCITEGIC>MOL_PROPERTY
W(SA)
SciTegic.value.DoubleValue
2.015

@<SCITEGIC>MOL_PROPERTY
Valence
SciTegic.value.DoubleValue
13.328

@<SCITEGIC>MOL_PROPERTY
Coulomb
SciTegic.value.DoubleValue
-8.387

@<SCITEGIC>MOL_PROPERTY
VdW
SciTegic.value.DoubleValue
3.840

@<SCITEGIC>MOL_PROPERTY
VdW6
SciTegic.value.DoubleValue
-9.744

@<SCITEGIC>MOL_PROPERTY
VdW12
SciTegic.value.DoubleValue
13.584

@<SCITEGIC>MOL_PROPERTY
Bond
SciTegic.value.DoubleValue
0.436

@<SCITEGIC>MOL_PROPERTY
Angle
SciTegic.value.DoubleValue
3.478

@<SCITEGIC>MOL_PROPERTY
Pdih
SciTegic.value.DoubleValue
9.415

@<SCITEGIC>MOL_PROPERTY
Idih
SciTegic.value.DoubleValue
0.000

@<SCITEGIC>MOL_PROPERTY
Tether
SciTegic.value.DoubleValue
0.000

@<TRIPOS>MOLECULE
guest-5_confgen4.mol2 : confsearch ligand conformer 186
          22          22           1
SMALL
USER_CHARGES
 
@<TRIPOS>ATOM
       1    C1      21.696715   19.965315   22.623673 C.3        1 MOL1        -0.1685
       2    H1      21.700417   19.940543   23.721845 H          1 MOL1         0.0832
       3    H2      22.739286   20.132189   22.320188 H          1 MOL1         0.0832
       4    C2      20.858711   21.156460   22.099672 C.3        1 MOL1        -0.1685
       5    H3      21.381667   22.089424   22.350573 H          1 MOL1         0.0832
       6    H4      20.821828   21.120927   21.002286 H          1 MOL1         0.0832
       7    C3      19.419339   21.245710   22.656962 C.3        1 MOL1        -0.1685
       8    H5      18.911768   22.084629   22.161569 H          1 MOL1         0.0832
       9    H6      19.456569   21.505891   23.723676 H          1 MOL1         0.0832
      10    C4      18.564136   19.969084   22.467136 C.3        1 MOL1        -0.1761
      11    H7      17.520946   20.232890   22.685417 H          1 MOL1         0.0832
      12    H8      18.583687   19.642127   21.419418 H          1 MOL1         0.0832
      13    C5      18.996416   18.817062   23.401804 C.3        1 MOL1         0.1218
      14    H9      19.362489   19.255156   24.341436 H          1 MOL1         0.0789
      15    C6      20.105010   17.905878   22.827297 C.3        1 MOL1        -0.1761
      16    H10     20.546200   17.351977   23.665983 H          1 MOL1         0.0832
      17    H11     19.651015   17.149588   22.173062 H          1 MOL1         0.0832
      18    C7      21.241328   18.606764   22.041431 C.3        1 MOL1        -0.1685
      19    H12     22.102511   17.925445   22.009931 H          1 MOL1         0.0832
      20    H13     20.935207   18.742072   20.995156 H          1 MOL1         0.0832
      21    O1      17.862401   18.006489   23.685001 O.3        1 MOL1        -0.5509
      22    H14     17.201410   18.586891   24.117257 H          1 MOL1         0.3779
@<TRIPOS>BOND
    1     1     2    1
    2     1     3    1
    3     1     4    1
    4     4     5    1
    5     4     6    1
    6     4     7    1
    7     7     8    1
    8     7     9    1
    9     7    10    1
   10    10    11    1
   11    10    12    1
   12    10    13    1
   13    13    14    1
   14    13    15    1
   15    15    16    1
   16    15    17    1
   17     1    18    1
   18    15    18    1
   19    18    19    1
   20    18    20    1
   21    13    21    1
   22    21    22    1
@<TRIPOS>SUBSTRUCTURE
       1 MOL1            1 RESIDUE      1      MOL     
@<SCITEGIC>MOL_PROPERTY
VConf Rank
SciTegic.value.IntegerValue
186

@<SCITEGIC>MOL_PROPERTY
Conf_Id
SciTegic.value.IntegerValue
144

@<SCITEGIC>MOL_PROPERTY
Delta U+W
SciTegic.value.DoubleValue
-3.291

@<SCITEGIC>MOL_PROPERTY
U+W
SciTegic.value.DoubleValue
3.132

@<SCITEGIC>MOL_PROPERTY
Grad RMS
SciTegic.value.DoubleValue
0.000000

@<SCITEGIC>MOL_PROPERTY
U
SciTegic.value.DoubleValue
5.411

@<SCITEGIC>MOL_PROPERTY
W
SciTegic.value.DoubleValue
-2.279

@<SCITEGIC>MOL_PROPERTY
W(PB)
SciTegic.value.DoubleValue
-4.300

@<SCITEGIC>MOL_PROPERTY
W(SA)
SciTegic.value.DoubleValue
2.021

@<SCITEGIC>MOL_PROPERTY
Valence
SciTegic.value.DoubleValue
11.909

@<SCITEGIC>MOL_PROPERTY
Coulomb
SciTegic.value.DoubleValue
-8.733

@<SCITEGIC>MOL_PROPERTY
VdW
SciTegic.value.DoubleValue
2.236

@<SCITEGIC>MOL_PROPERTY
VdW6
SciTegic.value.DoubleValue
-8.936

@<SCITEGIC>MOL_PROPERTY
VdW12
SciTegic.value.DoubleValue
11.172

@<SCITEGIC>MOL_PROPERTY
Bond
SciTegic.value.DoubleValue
0.223

@<SCITEGIC>MOL_PROPERTY
Angle
SciTegic.value.DoubleValue
2.457

@<SCITEGIC>MOL_PROPERTY
Pdih
SciTegic.value.DoubleValue
9.228

@<SCITEGIC>MOL_PROPERTY
Idih
SciTegic.value.DoubleValue
0.000

@<SCITEGIC>MOL_PROPERTY
Tether
SciTegic.value.DoubleValue
0.000

@<TRIPOS>MOLECULE
guest-5_confgen4.mol2 : confsearch ligand conformer 187
          22          22           1
SMALL
USER_CHARGES
 
@<TRIPOS>ATOM
       1    C1      19.338567   18.901965   24.142553 C.3        1 MOL1        -0.1685
       2    H1      19.241410   18.415226   25.122623 H          1 MOL1         0.0832
       3    H2      18.332314   19.253292   23.876647 H          1 MOL1         0.0832
       4    C2      19.838325   17.844396   23.130691 C.3        1 MOL1        -0.1685
       5    H3      20.929843   17.749392   23.210299 H          1 MOL1         0.0832
       6    H4      19.437389   16.862161   23.416107 H          1 MOL1         0.0832
       7    C3      19.446183   18.109257   21.656921 C.3        1 MOL1        -0.1685
       8    H5      18.430033   17.729345   21.483652 H          1 MOL1         0.0832
       9    H6      20.103164   17.507117   21.014409 H          1 MOL1         0.0832
      10    C4      19.495997   19.584143   21.187486 C.3        1 MOL1        -0.1761
      11    H7      19.526716   19.586244   20.089524 H          1 MOL1         0.0832
      12    H8      18.555891   20.081044   21.459855 H          1 MOL1         0.0832
      13    C5      20.684908   20.403247   21.738079 C.3        1 MOL1         0.1218
      14    H9      21.565354   19.752660   21.838187 H          1 MOL1         0.0789
      15    C6      20.369918   21.062765   23.099988 C.3        1 MOL1        -0.1761
      16    H10     21.137318   21.819822   23.309970 H          1 MOL1         0.0832
      17    H11     19.418397   21.606041   23.032580 H          1 MOL1         0.0832
      18    C7      20.315284   20.091599   24.303137 C.3        1 MOL1        -0.1685
      19    H12     21.324638   19.709716   24.508794 H          1 MOL1         0.0832
      20    H13     20.025203   20.665103   25.194054 H          1 MOL1         0.0832
      21    O1      20.982044   21.438337   20.810441 O.3        1 MOL1        -0.5509
      22    H14     20.177176   21.992753   20.747433 H          1 MOL1         0.3779
@<TRIPOS>BOND
    1     1     2    1
    2     1     3    1
    3     1     4    1
    4     4     5    1
    5     4     6    1
    6     4     7    1
    7     7     8    1
    8     7     9    1
    9     7    10    1
   10    10    11    1
   11    10    12    1
   12    10    13    1
   13    13    14    1
   14    13    15    1
   15    15    16    1
   16    15    17    1
   17     1    18    1
   18    15    18    1
   19    18    19    1
   20    18    20    1
   21    13    21    1
   22    21    22    1
@<TRIPOS>SUBSTRUCTURE
       1 MOL1            1 RESIDUE      1      MOL     
@<SCITEGIC>MOL_PROPERTY
VConf Rank
SciTegic.value.IntegerValue
187

@<SCITEGIC>MOL_PROPERTY
Conf_Id
SciTegic.value.IntegerValue
76

@<SCITEGIC>MOL_PROPERTY
Delta U+W
SciTegic.value.DoubleValue
-3.175

@<SCITEGIC>MOL_PROPERTY
U+W
SciTegic.value.DoubleValue
3.248

@<SCITEGIC>MOL_PROPERTY
Grad RMS
SciTegic.value.DoubleValue
0.000000

@<SCITEGIC>MOL_PROPERTY
U
SciTegic.value.DoubleValue
5.336

@<SCITEGIC>MOL_PROPERTY
W
SciTegic.value.DoubleValue
-2.088

@<SCITEGIC>MOL_PROPERTY
W(PB)
SciTegic.value.DoubleValue
-4.098

@<SCITEGIC>MOL_PROPERTY
W(SA)
SciTegic.value.DoubleValue
2.010

@<SCITEGIC>MOL_PROPERTY
Valence
SciTegic.value.DoubleValue
12.390

@<SCITEGIC>MOL_PROPERTY
Coulomb
SciTegic.value.DoubleValue
-9.270

@<SCITEGIC>MOL_PROPERTY
VdW
SciTegic.value.DoubleValue
2.216

@<SCITEGIC>MOL_PROPERTY
VdW6
SciTegic.value.DoubleValue
-8.967

@<SCITEGIC>MOL_PROPERTY
VdW12
SciTegic.value.DoubleValue
11.183

@<SCITEGIC>MOL_PROPERTY
Bond
SciTegic.value.DoubleValue
0.218

@<SCITEGIC>MOL_PROPERTY
Angle
SciTegic.value.DoubleValue
2.426

@<SCITEGIC>MOL_PROPERTY
Pdih
SciTegic.value.DoubleValue
9.745

@<SCITEGIC>MOL_PROPERTY
Idih
SciTegic.value.DoubleValue
0.000

@<SCITEGIC>MOL_PROPERTY
Tether
SciTegic.value.DoubleValue
0.000

@<TRIPOS>MOLECULE
guest-5_confgen4.mol2 : confsearch ligand conformer 188
          22          22           1
SMALL
USER_CHARGES
 
@<TRIPOS>ATOM
       1    C1      21.188727   21.046169   22.904807 C.3        1 MOL1        -0.1685
       2    H1      20.898801   22.105392   22.877046 H          1 MOL1         0.0832
       3    H2      22.255285   21.035843   23.167793 H          1 MOL1         0.0832
       4    C2      21.017163   20.460010   21.482957 C.3        1 MOL1        -0.1685
       5    H3      20.134877   20.907705   21.005862 H          1 MOL1         0.0832
       6    H4      21.874425   20.783331   20.876865 H          1 MOL1         0.0832
       7    C3      20.909921   18.918588   21.419228 C.3        1 MOL1        -0.1685
       8    H5      21.572101   18.447061   22.158157 H          1 MOL1         0.0832
       9    H6      21.270727   18.592047   20.434606 H          1 MOL1         0.0832
      10    C4      19.454367   18.411198   21.580463 C.3        1 MOL1        -0.1761
      11    H7      18.804484   18.950890   20.879823 H          1 MOL1         0.0832
      12    H8      19.413739   17.359071   21.269348 H          1 MOL1         0.0832
      13    C5      18.849064   18.512038   22.999102 C.3        1 MOL1         0.1218
      14    H9      17.776631   18.289098   22.902765 H          1 MOL1         0.0789
      15    C6      18.966796   19.904327   23.668548 C.3        1 MOL1        -0.1761
      16    H10     18.498277   20.664747   23.030481 H          1 MOL1         0.0832
      17    H11     18.368739   19.880876   24.588638 H          1 MOL1         0.0832
      18    C7      20.409175   20.337927   24.038348 C.3        1 MOL1        -0.1685
      19    H12     20.363513   21.023459   24.895310 H          1 MOL1         0.0832
      20    H13     20.984655   19.471455   24.389759 H          1 MOL1         0.0832
      21    O1      19.435800   17.517068   23.832048 O.3        1 MOL1        -0.5509
      22    H14     19.064952   17.649507   24.728271 H          1 MOL1         0.3779
@<TRIPOS>BOND
    1     1     2    1
    2     1     3    1
    3     1     4    1
    4     4     5    1
    5     4     6    1
    6     4     7    1
    7     7     8    1
    8     7     9    1
    9     7    10    1
   10    10    11    1
   11    10    12    1
   12    10    13    1
   13    13    14    1
   14    13    15    1
   15    15    16    1
   16    15    17    1
   17     1    18    1
   18    15    18    1
   19    18    19    1
   20    18    20    1
   21    13    21    1
   22    21    22    1
@<TRIPOS>SUBSTRUCTURE
       1 MOL1            1 RESIDUE      1      MOL     
@<SCITEGIC>MOL_PROPERTY
VConf Rank
SciTegic.value.IntegerValue
188

@<SCITEGIC>MOL_PROPERTY
Conf_Id
SciTegic.value.IntegerValue
95

@<SCITEGIC>MOL_PROPERTY
Delta U+W
SciTegic.value.DoubleValue
-2.289

@<SCITEGIC>MOL_PROPERTY
U+W
SciTegic.value.DoubleValue
4.134

@<SCITEGIC>MOL_PROPERTY
Grad RMS
SciTegic.value.DoubleValue
0.000000

@<SCITEGIC>MOL_PROPERTY
U
SciTegic.value.DoubleValue
6.373

@<SCITEGIC>MOL_PROPERTY
W
SciTegic.value.DoubleValue
-2.240

@<SCITEGIC>MOL_PROPERTY
W(PB)
SciTegic.value.DoubleValue
-4.254

@<SCITEGIC>MOL_PROPERTY
W(SA)
SciTegic.value.DoubleValue
2.015

@<SCITEGIC>MOL_PROPERTY
Valence
SciTegic.value.DoubleValue
12.093

@<SCITEGIC>MOL_PROPERTY
Coulomb
SciTegic.value.DoubleValue
-8.058

@<SCITEGIC>MOL_PROPERTY
VdW
SciTegic.value.DoubleValue
2.339

@<SCITEGIC>MOL_PROPERTY
VdW6
SciTegic.value.DoubleValue
-9.683

@<SCITEGIC>MOL_PROPERTY
VdW12
SciTegic.value.DoubleValue
12.022

@<SCITEGIC>MOL_PROPERTY
Bond
SciTegic.value.DoubleValue
0.268

@<SCITEGIC>MOL_PROPERTY
Angle
SciTegic.value.DoubleValue
3.005

@<SCITEGIC>MOL_PROPERTY
Pdih
SciTegic.value.DoubleValue
8.820

@<SCITEGIC>MOL_PROPERTY
Idih
SciTegic.value.DoubleValue
0.000

@<SCITEGIC>MOL_PROPERTY
Tether
SciTegic.value.DoubleValue
0.000

@<TRIPOS>MOLECULE
guest-5_confgen4.mol2 : confsearch ligand conformer 189
          22          22           1
SMALL
USER_CHARGES
 
@<TRIPOS>ATOM
       1    C1      20.217427   21.493171   23.090264 C.3        1 MOL1        -0.1685
       2    H1      21.126200   22.109234   23.053493 H          1 MOL1         0.0832
       3    H2      19.402687   22.179737   23.357873 H          1 MOL1         0.0832
       4    C2      20.385246   20.450120   24.220844 C.3        1 MOL1        -0.1685
       5    H3      21.432449   20.121367   24.262880 H          1 MOL1         0.0832
       6    H4      20.197585   20.954612   25.178482 H          1 MOL1         0.0832
       7    C3      19.461540   19.214381   24.114864 C.3        1 MOL1        -0.1685
       8    H5      18.467874   19.497095   23.741341 H          1 MOL1         0.0832
       9    H6      19.305391   18.818456   25.127429 H          1 MOL1         0.0832
      10    C4      20.075640   18.081420   23.254288 C.3        1 MOL1        -0.1761
      11    H7      21.098714   17.883117   23.599092 H          1 MOL1         0.0832
      12    H8      19.519385   17.154607   23.445548 H          1 MOL1         0.0832
      13    C5      20.106632   18.324712   21.727990 C.3        1 MOL1         0.1218
      14    H9      20.720250   17.523658   21.291087 H          1 MOL1         0.0789
      15    C6      20.736851   19.670252   21.289037 C.3        1 MOL1        -0.1761
      16    H10     21.762370   19.746353   21.672453 H          1 MOL1         0.0832
      17    H11     20.826780   19.644674   20.195379 H          1 MOL1         0.0832
      18    C7      19.927375   20.935209   21.676432 C.3        1 MOL1        -0.1685
      19    H12     20.144698   21.729165   20.949369 H          1 MOL1         0.0832
      20    H13     18.852374   20.735928   21.575039 H          1 MOL1         0.0832
      21    O1      18.787093   18.208416   21.204363 O.3        1 MOL1        -0.5509
      22    H14     18.431775   17.354131   21.523946 H          1 MOL1         0.3779
@<TRIPOS>BOND
    1     1     2    1
    2     1     3    1
    3     1     4    1
    4     4     5    1
    5     4     6    1
    6     4     7    1
    7     7     8    1
    8     7     9    1
    9     7    10    1
   10    10    11    1
   11    10    12    1
   12    10    13    1
   13    13    14    1
   14    13    15    1
   15    15    16    1
   16    15    17    1
   17     1    18    1
   18    15    18    1
   19    18    19    1
   20    18    20    1
   21    13    21    1
   22    21    22    1
@<TRIPOS>SUBSTRUCTURE
       1 MOL1            1 RESIDUE      1      MOL     
@<SCITEGIC>MOL_PROPERTY
VConf Rank
SciTegic.value.IntegerValue
189

@<SCITEGIC>MOL_PROPERTY
Conf_Id
SciTegic.value.IntegerValue
41

@<SCITEGIC>MOL_PROPERTY
Delta U+W
SciTegic.value.DoubleValue
-2.114

@<SCITEGIC>MOL_PROPERTY
U+W
SciTegic.value.DoubleValue
4.310

@<SCITEGIC>MOL_PROPERTY
Grad RMS
SciTegic.value.DoubleValue
0.000000

@<SCITEGIC>MOL_PROPERTY
U
SciTegic.value.DoubleValue
6.598

@<SCITEGIC>MOL_PROPERTY
W
SciTegic.value.DoubleValue
-2.289

@<SCITEGIC>MOL_PROPERTY
W(PB)
SciTegic.value.DoubleValue
-4.294

@<SCITEGIC>MOL_PROPERTY
W(SA)
SciTegic.value.DoubleValue
2.005

@<SCITEGIC>MOL_PROPERTY
Valence
SciTegic.value.DoubleValue
12.082

@<SCITEGIC>MOL_PROPERTY
Coulomb
SciTegic.value.DoubleValue
-7.801

@<SCITEGIC>MOL_PROPERTY
VdW
SciTegic.value.DoubleValue
2.317

@<SCITEGIC>MOL_PROPERTY
VdW6
SciTegic.value.DoubleValue
-9.658

@<SCITEGIC>MOL_PROPERTY
VdW12
SciTegic.value.DoubleValue
11.975

@<SCITEGIC>MOL_PROPERTY
Bond
SciTegic.value.DoubleValue
0.267

@<SCITEGIC>MOL_PROPERTY
Angle
SciTegic.value.DoubleValue
3.051

@<SCITEGIC>MOL_PROPERTY
Pdih
SciTegic.value.DoubleValue
8.764

@<SCITEGIC>MOL_PROPERTY
Idih
SciTegic.value.DoubleValue
0.000

@<SCITEGIC>MOL_PROPERTY
Tether
SciTegic.value.DoubleValue
0.000

@<TRIPOS>MOLECULE
guest-5_confgen4.mol2 : confsearch ligand conformer 190
          22          22           1
SMALL
USER_CHARGES
 
@<TRIPOS>ATOM
       1    C1      19.946507   18.801360   24.203256 C.3        1 MOL1        -0.1685
       2    H1      20.116176   18.323948   25.177854 H          1 MOL1         0.0832
       3    H2      18.909330   19.163741   24.214212 H          1 MOL1         0.0832
       4    C2      20.138470   17.727012   23.109496 C.3        1 MOL1        -0.1685
       5    H3      21.193586   17.423678   23.073440 H          1 MOL1         0.0832
       6    H4      19.576517   16.828388   23.398016 H          1 MOL1         0.0832
       7    C3      19.676586   18.153976   21.698969 C.3        1 MOL1        -0.1685
       8    H5      18.582923   18.252166   21.686723 H          1 MOL1         0.0832
       9    H6      19.905866   17.334014   21.005270 H          1 MOL1         0.0832
      10    C4      20.332440   19.451942   21.154609 C.3        1 MOL1        -0.1761
      11    H7      21.424630   19.385824   21.238313 H          1 MOL1         0.0832
      12    H8      20.120422   19.505223   20.079066 H          1 MOL1         0.0832
      13    C5      19.835869   20.779043   21.784094 C.3        1 MOL1         0.1218
      14    H9      20.136363   21.584893   21.098829 H          1 MOL1         0.0789
      15    C6      20.440242   21.140495   23.165841 C.3        1 MOL1        -0.1761
      16    H10     21.290630   21.814044   22.997811 H          1 MOL1         0.0832
      17    H11     19.710059   21.734113   23.731458 H          1 MOL1         0.0832
      18    C7      20.935867   19.979284   24.062972 C.3        1 MOL1        -0.1685
      19    H12     21.903077   19.610659   23.695502 H          1 MOL1         0.0832
      20    H13     21.137519   20.389393   25.061884 H          1 MOL1         0.0832
      21    O1      18.413116   20.790486   21.865099 O.3        1 MOL1        -0.5509
      22    H14     18.157695   21.661949   22.230093 H          1 MOL1         0.3779
@<TRIPOS>BOND
    1     1     2    1
    2     1     3    1
    3     1     4    1
    4     4     5    1
    5     4     6    1
    6     4     7    1
    7     7     8    1
    8     7     9    1
    9     7    10    1
   10    10    11    1
   11    10    12    1
   12    10    13    1
   13    13    14    1
   14    13    15    1
   15    15    16    1
   16    15    17    1
   17     1    18    1
   18    15    18    1
   19    18    19    1
   20    18    20    1
   21    13    21    1
   22    21    22    1
@<TRIPOS>SUBSTRUCTURE
       1 MOL1            1 RESIDUE      1      MOL     
@<SCITEGIC>MOL_PROPERTY
VConf Rank
SciTegic.value.IntegerValue
190

@<SCITEGIC>MOL_PROPERTY
Conf_Id
SciTegic.value.IntegerValue
104

@<SCITEGIC>MOL_PROPERTY
Delta U+W
SciTegic.value.DoubleValue
-1.172

@<SCITEGIC>MOL_PROPERTY
U+W
SciTegic.value.DoubleValue
5.252

@<SCITEGIC>MOL_PROPERTY
Grad RMS
SciTegic.value.DoubleValue
0.000000

@<SCITEGIC>MOL_PROPERTY
U
SciTegic.value.DoubleValue
7.482

@<SCITEGIC>MOL_PROPERTY
W
SciTegic.value.DoubleValue
-2.230

@<SCITEGIC>MOL_PROPERTY
W(PB)
SciTegic.value.DoubleValue
-4.220

@<SCITEGIC>MOL_PROPERTY
W(SA)
SciTegic.value.DoubleValue
1.990

@<SCITEGIC>MOL_PROPERTY
Valence
SciTegic.value.DoubleValue
12.309

@<SCITEGIC>MOL_PROPERTY
Coulomb
SciTegic.value.DoubleValue
-7.084

@<SCITEGIC>MOL_PROPERTY
VdW
SciTegic.value.DoubleValue
2.258

@<SCITEGIC>MOL_PROPERTY
VdW6
SciTegic.value.DoubleValue
-9.770

@<SCITEGIC>MOL_PROPERTY
VdW12
SciTegic.value.DoubleValue
12.028

@<SCITEGIC>MOL_PROPERTY
Bond
SciTegic.value.DoubleValue
0.284

@<SCITEGIC>MOL_PROPERTY
Angle
SciTegic.value.DoubleValue
3.491

@<SCITEGIC>MOL_PROPERTY
Pdih
SciTegic.value.DoubleValue
8.535

@<SCITEGIC>MOL_PROPERTY
Idih
SciTegic.value.DoubleValue
0.000

@<SCITEGIC>MOL_PROPERTY
Tether
SciTegic.value.DoubleValue
0.000

@<TRIPOS>MOLECULE
guest-5_confgen4.mol2 : confsearch ligand conformer 191
          22          22           1
SMALL
USER_CHARGES
 
@<TRIPOS>ATOM
       1    C1      21.353387   18.618956   22.992340 C.3        1 MOL1        -0.1685
       2    H1      22.070930   19.448900   22.939354 H          1 MOL1         0.0832
       3    H2      21.948446   17.717385   23.192379 H          1 MOL1         0.0832
       4    C2      20.636701   18.421274   21.637065 C.3        1 MOL1        -0.1685
       5    H3      21.307284   17.870341   20.963241 H          1 MOL1         0.0832
       6    H4      19.770150   17.761793   21.776742 H          1 MOL1         0.0832
       7    C3      20.201729   19.719895   20.911766 C.3        1 MOL1        -0.1685
       8    H5      19.355796   19.482970   20.251783 H          1 MOL1         0.0832
       9    H6      21.014558   20.032722   20.242155 H          1 MOL1         0.0832
      10    C4      19.830359   20.939655   21.798034 C.3        1 MOL1        -0.1761
      11    H7      20.751812   21.426256   22.143140 H          1 MOL1         0.0832
      12    H8      19.333933   21.682887   21.160720 H          1 MOL1         0.0832
      13    C5      18.922563   20.671904   23.020408 C.3        1 MOL1         0.1218
      14    H9      18.444608   21.625284   23.287816 H          1 MOL1         0.0789
      15    C6      19.712404   20.204002   24.263584 C.3        1 MOL1        -0.1761
      16    H10     20.484637   20.950357   24.490899 H          1 MOL1         0.0832
      17    H11     19.031328   20.211936   25.124583 H          1 MOL1         0.0832
      18    C7      20.375087   18.806857   24.176250 C.3        1 MOL1        -0.1685
      19    H12     20.927774   18.637854   25.110426 H          1 MOL1         0.0832
      20    H13     19.600635   18.028500   24.146848 H          1 MOL1         0.0832
      21    O1      17.915514   19.725995   22.695946 O.3        1 MOL1        -0.5509
      22    H14     18.414074   18.941799   22.391380 H          1 MOL1         0.3779
@<TRIPOS>BOND
    1     1     2    1
    2     1     3    1
    3     1     4    1
    4     4     5    1
    5     4     6    1
    6     4     7    1
    7     7     8    1
    8     7     9    1
    9     7    10    1
   10    10    11    1
   11    10    12    1
   12    10    13    1
   13    13    14    1
   14    13    15    1
   15    15    16    1
   16    15    17    1
   17     1    18    1
   18    15    18    1
   19    18    19    1
   20    18    20    1
   21    13    21    1
   22    21    22    1
@<TRIPOS>SUBSTRUCTURE
       1 MOL1            1 RESIDUE      1      MOL     
@<SCITEGIC>MOL_PROPERTY
VConf Rank
SciTegic.value.IntegerValue
191

@<SCITEGIC>MOL_PROPERTY
Conf_Id
SciTegic.value.IntegerValue
99

@<SCITEGIC>MOL_PROPERTY
Delta U+W
SciTegic.value.DoubleValue
-3.852

@<SCITEGIC>MOL_PROPERTY
U+W
SciTegic.value.DoubleValue
2.572

@<SCITEGIC>MOL_PROPERTY
Grad RMS
SciTegic.value.DoubleValue
0.000000

@<SCITEGIC>MOL_PROPERTY
U
SciTegic.value.DoubleValue
3.922

@<SCITEGIC>MOL_PROPERTY
W
SciTegic.value.DoubleValue
-1.350

@<SCITEGIC>MOL_PROPERTY
W(PB)
SciTegic.value.DoubleValue
-3.345

@<SCITEGIC>MOL_PROPERTY
W(SA)
SciTegic.value.DoubleValue
1.995

@<SCITEGIC>MOL_PROPERTY
Valence
SciTegic.value.DoubleValue
12.571

@<SCITEGIC>MOL_PROPERTY
Coulomb
SciTegic.value.DoubleValue
-10.581

@<SCITEGIC>MOL_PROPERTY
VdW
SciTegic.value.DoubleValue
1.932

@<SCITEGIC>MOL_PROPERTY
VdW6
SciTegic.value.DoubleValue
-10.483

@<SCITEGIC>MOL_PROPERTY
VdW12
SciTegic.value.DoubleValue
12.415

@<SCITEGIC>MOL_PROPERTY
Bond
SciTegic.value.DoubleValue
0.268

@<SCITEGIC>MOL_PROPERTY
Angle
SciTegic.value.DoubleValue
3.728

@<SCITEGIC>MOL_PROPERTY
Pdih
SciTegic.value.DoubleValue
8.575

@<SCITEGIC>MOL_PROPERTY
Idih
SciTegic.value.DoubleValue
0.000

@<SCITEGIC>MOL_PROPERTY
Tether
SciTegic.value.DoubleValue
0.000

@<TRIPOS>MOLECULE
guest-5_confgen4.mol2 : confsearch ligand conformer 192
          22          22           1
SMALL
USER_CHARGES
 
@<TRIPOS>ATOM
       1    C1      21.213748   20.626051   22.033300 C.3        1 MOL1        -0.1685
       2    H1      21.951638   20.897268   21.265674 H          1 MOL1         0.0832
       3    H2      21.208753   21.472657   22.732792 H          1 MOL1         0.0832
       4    C2      21.721266   19.340718   22.750373 C.3        1 MOL1        -0.1685
       5    H3      22.678906   19.055698   22.293228 H          1 MOL1         0.0832
       6    H4      21.962839   19.562474   23.798476 H          1 MOL1         0.0832
       7    C3      20.781340   18.109930   22.683660 C.3        1 MOL1        -0.1685
       8    H5      21.332507   17.232905   23.049403 H          1 MOL1         0.0832
       9    H6      20.552747   17.874871   21.636731 H          1 MOL1         0.0832
      10    C4      19.461881   18.215453   23.497739 C.3        1 MOL1        -0.1761
      11    H7      18.739758   17.505750   23.073944 H          1 MOL1         0.0832
      12    H8      19.654580   17.858542   24.518267 H          1 MOL1         0.0832
      13    C5      18.779443   19.601087   23.609331 C.3        1 MOL1         0.1218
      14    H9      17.771879   19.429169   24.014343 H          1 MOL1         0.0789
      15    C6      18.604485   20.387189   22.286614 C.3        1 MOL1        -0.1761
      16    H10     17.780870   19.934324   21.719771 H          1 MOL1         0.0832
      17    H11     18.257996   21.396690   22.545166 H          1 MOL1         0.0832
      18    C7      19.831044   20.516479   21.341289 C.3        1 MOL1        -0.1685
      19    H12     19.838721   19.682585   20.628458 H          1 MOL1         0.0832
      20    H13     19.683160   21.409818   20.719357 H          1 MOL1         0.0832
      21    O1      19.477920   20.401437   24.549975 O.3        1 MOL1        -0.5509
      22    H14     20.360392   20.524808   24.146296 H          1 MOL1         0.3779
@<TRIPOS>BOND
    1     1     2    1
    2     1     3    1
    3     1     4    1
    4     4     5    1
    5     4     6    1
    6     4     7    1
    7     7     8    1
    8     7     9    1
    9     7    10    1
   10    10    11    1
   11    10    12    1
   12    10    13    1
   13    13    14    1
   14    13    15    1
   15    15    16    1
   16    15    17    1
   17     1    18    1
   18    15    18    1
   19    18    19    1
   20    18    20    1
   21    13    21    1
   22    21    22    1
@<TRIPOS>SUBSTRUCTURE
       1 MOL1            1 RESIDUE      1      MOL     
@<SCITEGIC>MOL_PROPERTY
VConf Rank
SciTegic.value.IntegerValue
192

@<SCITEGIC>MOL_PROPERTY
Conf_Id
SciTegic.value.IntegerValue
98

@<SCITEGIC>MOL_PROPERTY
Delta U+W
SciTegic.value.DoubleValue
0.930

@<SCITEGIC>MOL_PROPERTY
U+W
SciTegic.value.DoubleValue
7.353

@<SCITEGIC>MOL_PROPERTY
Grad RMS
SciTegic.value.DoubleValue
0.000000

@<SCITEGIC>MOL_PROPERTY
U
SciTegic.value.DoubleValue
8.455

@<SCITEGIC>MOL_PROPERTY
W
SciTegic.value.DoubleValue
-1.102

@<SCITEGIC>MOL_PROPERTY
W(PB)
SciTegic.value.DoubleValue
-3.101

@<SCITEGIC>MOL_PROPERTY
W(SA)
SciTegic.value.DoubleValue
2.000

@<SCITEGIC>MOL_PROPERTY
Valence
SciTegic.value.DoubleValue
15.601

@<SCITEGIC>MOL_PROPERTY
Coulomb
SciTegic.value.DoubleValue
-10.573

@<SCITEGIC>MOL_PROPERTY
VdW
SciTegic.value.DoubleValue
3.427

@<SCITEGIC>MOL_PROPERTY
VdW6
SciTegic.value.DoubleValue
-11.360

@<SCITEGIC>MOL_PROPERTY
VdW12
SciTegic.value.DoubleValue
14.787

@<SCITEGIC>MOL_PROPERTY
Bond
SciTegic.value.DoubleValue
0.471

@<SCITEGIC>MOL_PROPERTY
Angle
SciTegic.value.DoubleValue
5.445

@<SCITEGIC>MOL_PROPERTY
Pdih
SciTegic.value.DoubleValue
9.685

@<SCITEGIC>MOL_PROPERTY
Idih
SciTegic.value.DoubleValue
0.000

@<SCITEGIC>MOL_PROPERTY
Tether
SciTegic.value.DoubleValue
0.000

@<TRIPOS>MOLECULE
guest-5_confgen4.mol2 : confsearch ligand conformer 193
          22          22           1
SMALL
USER_CHARGES
 
@<TRIPOS>ATOM
       1    C1      19.692574   20.806345   23.764446 C.3        1 MOL1        -0.1685
       2    H1      18.902447   21.135008   23.077088 H          1 MOL1         0.0832
       3    H2      19.626184   21.489032   24.622492 H          1 MOL1         0.0832
       4    C2      21.078527   20.988687   23.095086 C.3        1 MOL1        -0.1685
       5    H3      21.188128   22.053129   22.846441 H          1 MOL1         0.0832
       6    H4      21.870579   20.770507   23.824246 H          1 MOL1         0.0832
       7    C3      21.331466   20.162079   21.803812 C.3        1 MOL1        -0.1685
       8    H5      21.977435   19.303130   22.027295 H          1 MOL1         0.0832
       9    H6      21.915137   20.781593   21.109431 H          1 MOL1         0.0832
      10    C4      20.051647   19.671354   21.076514 C.3        1 MOL1        -0.1761
      11    H7      19.381337   20.524281   20.912728 H          1 MOL1         0.0832
      12    H8      20.334057   19.337587   20.068928 H          1 MOL1         0.0832
      13    C5      19.263260   18.529816   21.783061 C.3        1 MOL1         0.1218
      14    H9      18.196425   18.795767   21.768891 H          1 MOL1         0.0789
      15    C6      19.668028   18.234276   23.249034 C.3        1 MOL1        -0.1761
      16    H10     19.132782   17.339350   23.592074 H          1 MOL1         0.0832
      17    H11     20.730230   17.964998   23.291532 H          1 MOL1         0.0832
      18    C7      19.383497   19.373751   24.259205 C.3        1 MOL1        -0.1685
      19    H12     18.325144   19.334028   24.550970 H          1 MOL1         0.0832
      20    H13     19.956279   19.177622   25.175789 H          1 MOL1         0.0832
      21    O1      19.445408   17.329700   21.040282 O.3        1 MOL1        -0.5509
      22    H14     18.894685   16.643763   21.471991 H          1 MOL1         0.3779
@<TRIPOS>BOND
    1     1     2    1
    2     1     3    1
    3     1     4    1
    4     4     5    1
    5     4     6    1
    6     4     7    1
    7     7     8    1
    8     7     9    1
    9     7    10    1
   10    10    11    1
   11    10    12    1
   12    10    13    1
   13    13    14    1
   14    13    15    1
   15    15    16    1
   16    15    17    1
   17     1    18    1
   18    15    18    1
   19    18    19    1
   20    18    20    1
   21    13    21    1
   22    21    22    1
@<TRIPOS>SUBSTRUCTURE
       1 MOL1            1 RESIDUE      1      MOL     
@<SCITEGIC>MOL_PROPERTY
VConf Rank
SciTegic.value.IntegerValue
193

@<SCITEGIC>MOL_PROPERTY
Conf_Id
SciTegic.value.IntegerValue
141

@<SCITEGIC>MOL_PROPERTY
Delta U+W
SciTegic.value.DoubleValue
0.000

@<SCITEGIC>MOL_PROPERTY
U+W
SciTegic.value.DoubleValue
6.423

@<SCITEGIC>MOL_PROPERTY
Grad RMS
SciTegic.value.DoubleValue
0.000000

@<SCITEGIC>MOL_PROPERTY
U
SciTegic.value.DoubleValue
8.781

@<SCITEGIC>MOL_PROPERTY
W
SciTegic.value.DoubleValue
-2.358

@<SCITEGIC>MOL_PROPERTY
W(PB)
SciTegic.value.DoubleValue
-4.373

@<SCITEGIC>MOL_PROPERTY
W(SA)
SciTegic.value.DoubleValue
2.015

@<SCITEGIC>MOL_PROPERTY
Valence
SciTegic.value.DoubleValue
13.328

@<SCITEGIC>MOL_PROPERTY
Coulomb
SciTegic.value.DoubleValue
-8.387

@<SCITEGIC>MOL_PROPERTY
VdW
SciTegic.value.DoubleValue
3.840

@<SCITEGIC>MOL_PROPERTY
VdW6
SciTegic.value.DoubleValue
-9.744

@<SCITEGIC>MOL_PROPERTY
VdW12
SciTegic.value.DoubleValue
13.584

@<SCITEGIC>MOL_PROPERTY
Bond
SciTegic.value.DoubleValue
0.436

@<SCITEGIC>MOL_PROPERTY
Angle
SciTegic.value.DoubleValue
3.478

@<SCITEGIC>MOL_PROPERTY
Pdih
SciTegic.value.DoubleValue
9.415

@<SCITEGIC>MOL_PROPERTY
Idih
SciTegic.value.DoubleValue
0.000

@<SCITEGIC>MOL_PROPERTY
Tether
SciTegic.value.DoubleValue
0.000

@<TRIPOS>MOLECULE
guest-5_confgen4.mol2 : confsearch ligand conformer 194
          22          22           1
SMALL
USER_CHARGES
 
@<TRIPOS>ATOM
       1    C1      20.895128   21.022977   23.143033 C.3        1 MOL1        -0.1685
       2    H1      21.167920   21.179100   22.090503 H          1 MOL1         0.0832
       3    H2      21.330059   21.865668   23.697661 H          1 MOL1         0.0832
       4    C2      21.529182   19.722157   23.692119 C.3        1 MOL1        -0.1685
       5    H3      22.617121   19.861869   23.753149 H          1 MOL1         0.0832
       6    H4      21.190834   19.559782   24.724608 H          1 MOL1         0.0832
       7    C3      21.252485   18.450484   22.857482 C.3        1 MOL1        -0.1685
       8    H5      21.694294   17.593020   23.383206 H          1 MOL1         0.0832
       9    H6      21.784306   18.520443   21.898717 H          1 MOL1         0.0832
      10    C4      19.755789   18.152327   22.596366 C.3        1 MOL1        -0.1761
      11    H7      19.684258   17.127858   22.207997 H          1 MOL1         0.0832
      12    H8      19.189090   18.162855   23.536440 H          1 MOL1         0.0832
      13    C5      19.124091   19.122191   21.572671 C.3        1 MOL1         0.1218
      14    H9      19.897109   19.404379   20.843523 H          1 MOL1         0.0789
      15    C6      18.542503   20.415484   22.187849 C.3        1 MOL1        -0.1761
      16    H10     18.424901   21.144691   21.375890 H          1 MOL1         0.0832
      17    H11     17.529434   20.216187   22.562125 H          1 MOL1         0.0832
      18    C7      19.360477   21.069687   23.329332 C.3        1 MOL1        -0.1685
      19    H12     19.043409   22.117878   23.416437 H          1 MOL1         0.0832
      20    H13     19.094461   20.601636   24.286867 H          1 MOL1         0.0832
      21    O1      18.074073   18.447967   20.889955 O.3        1 MOL1        -0.5509
      22    H14     18.478134   17.673870   20.444841 H          1 MOL1         0.3779
@<TRIPOS>BOND
    1     1     2    1
    2     1     3    1
    3     1     4    1
    4     4     5    1
    5     4     6    1
    6     4     7    1
    7     7     8    1
    8     7     9    1
    9     7    10    1
   10    10    11    1
   11    10    12    1
   12    10    13    1
   13    13    14    1
   14    13    15    1
   15    15    16    1
   16    15    17    1
   17     1    18    1
   18    15    18    1
   19    18    19    1
   20    18    20    1
   21    13    21    1
   22    21    22    1
@<TRIPOS>SUBSTRUCTURE
       1 MOL1            1 RESIDUE      1      MOL     
@<SCITEGIC>MOL_PROPERTY
VConf Rank
SciTegic.value.IntegerValue
194

@<SCITEGIC>MOL_PROPERTY
Conf_Id
SciTegic.value.IntegerValue
144

@<SCITEGIC>MOL_PROPERTY
Delta U+W
SciTegic.value.DoubleValue
-3.291

@<SCITEGIC>MOL_PROPERTY
U+W
SciTegic.value.DoubleValue
3.132

@<SCITEGIC>MOL_PROPERTY
Grad RMS
SciTegic.value.DoubleValue
0.000000

@<SCITEGIC>MOL_PROPERTY
U
SciTegic.value.DoubleValue
5.411

@<SCITEGIC>MOL_PROPERTY
W
SciTegic.value.DoubleValue
-2.279

@<SCITEGIC>MOL_PROPERTY
W(PB)
SciTegic.value.DoubleValue
-4.300

@<SCITEGIC>MOL_PROPERTY
W(SA)
SciTegic.value.DoubleValue
2.021

@<SCITEGIC>MOL_PROPERTY
Valence
SciTegic.value.DoubleValue
11.909

@<SCITEGIC>MOL_PROPERTY
Coulomb
SciTegic.value.DoubleValue
-8.733

@<SCITEGIC>MOL_PROPERTY
VdW
SciTegic.value.DoubleValue
2.236

@<SCITEGIC>MOL_PROPERTY
VdW6
SciTegic.value.DoubleValue
-8.936

@<SCITEGIC>MOL_PROPERTY
VdW12
SciTegic.value.DoubleValue
11.172

@<SCITEGIC>MOL_PROPERTY
Bond
SciTegic.value.DoubleValue
0.223

@<SCITEGIC>MOL_PROPERTY
Angle
SciTegic.value.DoubleValue
2.457

@<SCITEGIC>MOL_PROPERTY
Pdih
SciTegic.value.DoubleValue
9.228

@<SCITEGIC>MOL_PROPERTY
Idih
SciTegic.value.DoubleValue
0.000

@<SCITEGIC>MOL_PROPERTY
Tether
SciTegic.value.DoubleValue
0.000

@<TRIPOS>MOLECULE
guest-5_confgen4.mol2 : confsearch ligand conformer 195
          22          22           1
SMALL
USER_CHARGES
 
@<TRIPOS>ATOM
       1    C1      20.579621   19.719130   24.255257 C.3        1 MOL1        -0.1685
       2    H1      20.747426   19.996884   25.304821 H          1 MOL1         0.0832
       3    H2      21.403490   19.045157   23.983814 H          1 MOL1         0.0832
       4    C2      20.621840   21.011016   23.405950 C.3        1 MOL1        -0.1685
       5    H3      19.643265   21.508396   23.448135 H          1 MOL1         0.0832
       6    H4      21.328402   21.715587   23.865676 H          1 MOL1         0.0832
       7    C3      21.040110   20.812167   21.928983 C.3        1 MOL1        -0.1685
       8    H5      22.136786   20.789863   21.868001 H          1 MOL1         0.0832
       9    H6      20.728029   21.700164   21.362339 H          1 MOL1         0.0832
      10    C4      20.492279   19.546544   21.224555 C.3        1 MOL1        -0.1761
      11    H7      20.579432   19.701226   20.140605 H          1 MOL1         0.0832
      12    H8      21.143769   18.694204   21.456875 H          1 MOL1         0.0832
      13    C5      19.032214   19.184729   21.577958 C.3        1 MOL1         0.1218
      14    H9      18.453741   20.105278   21.740523 H          1 MOL1         0.0789
      15    C6      18.931576   18.281445   22.828130 C.3        1 MOL1        -0.1761
      16    H10     17.919142   17.858563   22.875862 H          1 MOL1         0.0832
      17    H11     19.612210   17.427149   22.718579 H          1 MOL1         0.0832
      18    C7      19.217769   18.988530   24.174176 C.3        1 MOL1        -0.1685
      19    H12     18.408849   19.699543   24.391050 H          1 MOL1         0.0832
      20    H13     19.176215   18.235488   24.972918 H          1 MOL1         0.0832
      21    O1      18.469514   18.476514   20.481596 O.3        1 MOL1        -0.5509
      22    H14     19.010395   17.668048   20.367626 H          1 MOL1         0.3779
@<TRIPOS>BOND
    1     1     2    1
    2     1     3    1
    3     1     4    1
    4     4     5    1
    5     4     6    1
    6     4     7    1
    7     7     8    1
    8     7     9    1
    9     7    10    1
   10    10    11    1
   11    10    12    1
   12    10    13    1
   13    13    14    1
   14    13    15    1
   15    15    16    1
   16    15    17    1
   17     1    18    1
   18    15    18    1
   19    18    19    1
   20    18    20    1
   21    13    21    1
   22    21    22    1
@<TRIPOS>SUBSTRUCTURE
       1 MOL1            1 RESIDUE      1      MOL     
@<SCITEGIC>MOL_PROPERTY
VConf Rank
SciTegic.value.IntegerValue
195

@<SCITEGIC>MOL_PROPERTY
Conf_Id
SciTegic.value.IntegerValue
76

@<SCITEGIC>MOL_PROPERTY
Delta U+W
SciTegic.value.DoubleValue
-3.175

@<SCITEGIC>MOL_PROPERTY
U+W
SciTegic.value.DoubleValue
3.248

@<SCITEGIC>MOL_PROPERTY
Grad RMS
SciTegic.value.DoubleValue
0.000000

@<SCITEGIC>MOL_PROPERTY
U
SciTegic.value.DoubleValue
5.336

@<SCITEGIC>MOL_PROPERTY
W
SciTegic.value.DoubleValue
-2.088

@<SCITEGIC>MOL_PROPERTY
W(PB)
SciTegic.value.DoubleValue
-4.098

@<SCITEGIC>MOL_PROPERTY
W(SA)
SciTegic.value.DoubleValue
2.010

@<SCITEGIC>MOL_PROPERTY
Valence
SciTegic.value.DoubleValue
12.390

@<SCITEGIC>MOL_PROPERTY
Coulomb
SciTegic.value.DoubleValue
-9.270

@<SCITEGIC>MOL_PROPERTY
VdW
SciTegic.value.DoubleValue
2.216

@<SCITEGIC>MOL_PROPERTY
VdW6
SciTegic.value.DoubleValue
-8.967

@<SCITEGIC>MOL_PROPERTY
VdW12
SciTegic.value.DoubleValue
11.183

@<SCITEGIC>MOL_PROPERTY
Bond
SciTegic.value.DoubleValue
0.218

@<SCITEGIC>MOL_PROPERTY
Angle
SciTegic.value.DoubleValue
2.426

@<SCITEGIC>MOL_PROPERTY
Pdih
SciTegic.value.DoubleValue
9.745

@<SCITEGIC>MOL_PROPERTY
Idih
SciTegic.value.DoubleValue
0.000

@<SCITEGIC>MOL_PROPERTY
Tether
SciTegic.value.DoubleValue
0.000

@<TRIPOS>MOLECULE
guest-5_confgen4.mol2 : confsearch ligand conformer 196
          22          22           1
SMALL
USER_CHARGES
 
@<TRIPOS>ATOM
       1    C1      18.396593   19.121596   23.416479 C.3        1 MOL1        -0.1685
       2    H1      17.422140   19.551604   23.147562 H          1 MOL1         0.0832
       3    H2      18.181022   18.325077   24.141670 H          1 MOL1         0.0832
       4    C2      19.234857   20.220282   24.112810 C.3        1 MOL1        -0.1685
       5    H3      19.030624   21.191171   23.641491 H          1 MOL1         0.0832
       6    H4      18.877612   20.315218   25.147289 H          1 MOL1         0.0832
       7    C3      20.760396   19.967312   24.129558 C.3        1 MOL1        -0.1685
       8    H5      20.980964   18.900598   24.272058 H          1 MOL1         0.0832
       9    H6      21.182344   20.484798   25.001601 H          1 MOL1         0.0832
      10    C4      21.473095   20.513507   22.866303 C.3        1 MOL1        -0.1761
      11    H7      21.177793   21.558769   22.709024 H          1 MOL1         0.0832
      12    H8      22.554021   20.538156   23.057100 H          1 MOL1         0.0832
      13    C5      21.238554   19.727605   21.556170 C.3        1 MOL1         0.1218
      14    H9      21.653470   20.338478   20.741445 H          1 MOL1         0.0789
      15    C6      19.753777   19.452856   21.209128 C.3        1 MOL1        -0.1761
      16    H10     19.202796   20.400686   21.155115 H          1 MOL1         0.0832
      17    H11     19.722837   19.034488   20.194831 H          1 MOL1         0.0832
      18    C7      19.025319   18.469636   22.161936 C.3        1 MOL1        -0.1685
      19    H12     18.222836   17.967085   21.605262 H          1 MOL1         0.0832
      20    H13     19.709482   17.668831   22.471890 H          1 MOL1         0.0832
      21    O1      21.964277   18.503339   21.606376 O.3        1 MOL1        -0.5509
      22    H14     21.747412   18.016714   20.785128 H          1 MOL1         0.3779
@<TRIPOS>BOND
    1     1     2    1
    2     1     3    1
    3     1     4    1
    4     4     5    1
    5     4     6    1
    6     4     7    1
    7     7     8    1
    8     7     9    1
    9     7    10    1
   10    10    11    1
   11    10    12    1
   12    10    13    1
   13    13    14    1
   14    13    15    1
   15    15    16    1
   16    15    17    1
   17     1    18    1
   18    15    18    1
   19    18    19    1
   20    18    20    1
   21    13    21    1
   22    21    22    1
@<TRIPOS>SUBSTRUCTURE
       1 MOL1            1 RESIDUE      1      MOL     
@<SCITEGIC>MOL_PROPERTY
VConf Rank
SciTegic.value.IntegerValue
196

@<SCITEGIC>MOL_PROPERTY
Conf_Id
SciTegic.value.IntegerValue
95

@<SCITEGIC>MOL_PROPERTY
Delta U+W
SciTegic.value.DoubleValue
-2.289

@<SCITEGIC>MOL_PROPERTY
U+W
SciTegic.value.DoubleValue
4.134

@<SCITEGIC>MOL_PROPERTY
Grad RMS
SciTegic.value.DoubleValue
0.000000

@<SCITEGIC>MOL_PROPERTY
U
SciTegic.value.DoubleValue
6.373

@<SCITEGIC>MOL_PROPERTY
W
SciTegic.value.DoubleValue
-2.240

@<SCITEGIC>MOL_PROPERTY
W(PB)
SciTegic.value.DoubleValue
-4.254

@<SCITEGIC>MOL_PROPERTY
W(SA)
SciTegic.value.DoubleValue
2.015

@<SCITEGIC>MOL_PROPERTY
Valence
SciTegic.value.DoubleValue
12.093

@<SCITEGIC>MOL_PROPERTY
Coulomb
SciTegic.value.DoubleValue
-8.058

@<SCITEGIC>MOL_PROPERTY
VdW
SciTegic.value.DoubleValue
2.339

@<SCITEGIC>MOL_PROPERTY
VdW6
SciTegic.value.DoubleValue
-9.683

@<SCITEGIC>MOL_PROPERTY
VdW12
SciTegic.value.DoubleValue
12.022

@<SCITEGIC>MOL_PROPERTY
Bond
SciTegic.value.DoubleValue
0.268

@<SCITEGIC>MOL_PROPERTY
Angle
SciTegic.value.DoubleValue
3.005

@<SCITEGIC>MOL_PROPERTY
Pdih
SciTegic.value.DoubleValue
8.820

@<SCITEGIC>MOL_PROPERTY
Idih
SciTegic.value.DoubleValue
0.000

@<SCITEGIC>MOL_PROPERTY
Tether
SciTegic.value.DoubleValue
0.000

@<TRIPOS>MOLECULE
guest-5_confgen4.mol2 : confsearch ligand conformer 197
          22          22           1
SMALL
USER_CHARGES
 
@<TRIPOS>ATOM
       1    C1      19.046303   18.031973   22.379905 C.3        1 MOL1        -0.1685
       2    H1      18.151396   17.674768   22.907447 H          1 MOL1         0.0832
       3    H2      19.236991   17.297437   21.585622 H          1 MOL1         0.0832
       4    C2      20.232663   18.015069   23.373179 C.3        1 MOL1        -0.1685
       5    H3      19.875972   18.293807   24.373957 H          1 MOL1         0.0832
       6    H4      20.583407   16.978092   23.465142 H          1 MOL1         0.0832
       7    C3      21.427145   18.916367   22.982807 C.3        1 MOL1        -0.1685
       8    H5      21.591243   18.903128   21.896660 H          1 MOL1         0.0832
       9    H6      22.334722   18.492580   23.433512 H          1 MOL1         0.0832
      10    C4      21.275226   20.368164   23.502920 C.3        1 MOL1        -0.1761
      11    H7      21.027472   20.342367   24.571961 H          1 MOL1         0.0832
      12    H8      22.251395   20.866582   23.442449 H          1 MOL1         0.0832
      13    C5      20.233234   21.247927   22.774906 C.3        1 MOL1         0.1218
      14    H9      20.125334   22.168180   23.367016 H          1 MOL1         0.0789
      15    C6      18.821295   20.623609   22.644568 C.3        1 MOL1        -0.1761
      16    H10     18.429032   20.373569   23.638600 H          1 MOL1         0.0832
      17    H11     18.157696   21.402655   22.247639 H          1 MOL1         0.0832
      18    C7      18.729420   19.389925   21.709141 C.3        1 MOL1        -0.1685
      19    H12     17.712417   19.334005   21.298296 H          1 MOL1         0.0832
      20    H13     19.385555   19.530826   20.840087 H          1 MOL1         0.0832
      21    O1      20.731610   21.603793   21.488876 O.3        1 MOL1        -0.5509
      22    H14     21.626805   21.974992   21.626801 H          1 MOL1         0.3779
@<TRIPOS>BOND
    1     1     2    1
    2     1     3    1
    3     1     4    1
    4     4     5    1
    5     4     6    1
    6     4     7    1
    7     7     8    1
    8     7     9    1
    9     7    10    1
   10    10    11    1
   11    10    12    1
   12    10    13    1
   13    13    14    1
   14    13    15    1
   15    15    16    1
   16    15    17    1
   17     1    18    1
   18    15    18    1
   19    18    19    1
   20    18    20    1
   21    13    21    1
   22    21    22    1
@<TRIPOS>SUBSTRUCTURE
       1 MOL1            1 RESIDUE      1      MOL     
@<SCITEGIC>MOL_PROPERTY
VConf Rank
SciTegic.value.IntegerValue
197

@<SCITEGIC>MOL_PROPERTY
Conf_Id
SciTegic.value.IntegerValue
41

@<SCITEGIC>MOL_PROPERTY
Delta U+W
SciTegic.value.DoubleValue
-2.114

@<SCITEGIC>MOL_PROPERTY
U+W
SciTegic.value.DoubleValue
4.310

@<SCITEGIC>MOL_PROPERTY
Grad RMS
SciTegic.value.DoubleValue
0.000000

@<SCITEGIC>MOL_PROPERTY
U
SciTegic.value.DoubleValue
6.598

@<SCITEGIC>MOL_PROPERTY
W
SciTegic.value.DoubleValue
-2.289

@<SCITEGIC>MOL_PROPERTY
W(PB)
SciTegic.value.DoubleValue
-4.294

@<SCITEGIC>MOL_PROPERTY
W(SA)
SciTegic.value.DoubleValue
2.005

@<SCITEGIC>MOL_PROPERTY
Valence
SciTegic.value.DoubleValue
12.082

@<SCITEGIC>MOL_PROPERTY
Coulomb
SciTegic.value.DoubleValue
-7.801

@<SCITEGIC>MOL_PROPERTY
VdW
SciTegic.value.DoubleValue
2.317

@<SCITEGIC>MOL_PROPERTY
VdW6
SciTegic.value.DoubleValue
-9.658

@<SCITEGIC>MOL_PROPERTY
VdW12
SciTegic.value.DoubleValue
11.975

@<SCITEGIC>MOL_PROPERTY
Bond
SciTegic.value.DoubleValue
0.267

@<SCITEGIC>MOL_PROPERTY
Angle
SciTegic.value.DoubleValue
3.051

@<SCITEGIC>MOL_PROPERTY
Pdih
SciTegic.value.DoubleValue
8.764

@<SCITEGIC>MOL_PROPERTY
Idih
SciTegic.value.DoubleValue
0.000

@<SCITEGIC>MOL_PROPERTY
Tether
SciTegic.value.DoubleValue
0.000

@<TRIPOS>MOLECULE
guest-5_confgen4.mol2 : confsearch ligand conformer 198
          22          22           1
SMALL
USER_CHARGES
 
@<TRIPOS>ATOM
       1    C1      20.896776   19.697987   21.268428 C.3        1 MOL1        -0.1685
       2    H1      21.238745   19.650690   20.225658 H          1 MOL1         0.0832
       3    H2      21.387986   20.573864   21.714218 H          1 MOL1         0.0832
       4    C2      21.348263   18.399917   21.974517 C.3        1 MOL1        -0.1685
       5    H3      20.800186   17.544558   21.556721 H          1 MOL1         0.0832
       6    H4      22.406679   18.222952   21.740004 H          1 MOL1         0.0832
       7    C3      21.189084   18.413302   23.510650 C.3        1 MOL1        -0.1685
       8    H5      21.899097   19.129400   23.945362 H          1 MOL1         0.0832
       9    H6      21.494150   17.429219   23.890966 H          1 MOL1         0.0832
      10    C4      19.753742   18.711211   24.022733 C.3        1 MOL1        -0.1761
      11    H7      19.032570   18.046729   23.530156 H          1 MOL1         0.0832
      12    H8      19.719813   18.447878   25.087669 H          1 MOL1         0.0832
      13    C5      19.281374   20.182982   23.901122 C.3        1 MOL1         0.1218
      14    H9      18.418357   20.293721   24.573592 H          1 MOL1         0.0789
      15    C6      18.792653   20.623063   22.496622 C.3        1 MOL1        -0.1761
      16    H10     17.700184   20.518801   22.470134 H          1 MOL1         0.0832
      17    H11     18.982541   21.697266   22.372117 H          1 MOL1         0.0832
      18    C7      19.362120   19.873617   21.266607 C.3        1 MOL1        -0.1685
      19    H12     18.875887   18.893594   21.168905 H          1 MOL1         0.0832
      20    H13     19.074068   20.435914   20.367982 H          1 MOL1         0.0832
      21    O1      20.298409   21.071931   24.355356 O.3        1 MOL1        -0.5509
      22    H14     19.931203   21.977037   24.293291 H          1 MOL1         0.3779
@<TRIPOS>BOND
    1     1     2    1
    2     1     3    1
    3     1     4    1
    4     4     5    1
    5     4     6    1
    6     4     7    1
    7     7     8    1
    8     7     9    1
    9     7    10    1
   10    10    11    1
   11    10    12    1
   12    10    13    1
   13    13    14    1
   14    13    15    1
   15    15    16    1
   16    15    17    1
   17     1    18    1
   18    15    18    1
   19    18    19    1
   20    18    20    1
   21    13    21    1
   22    21    22    1
@<TRIPOS>SUBSTRUCTURE
       1 MOL1            1 RESIDUE      1      MOL     
@<SCITEGIC>MOL_PROPERTY
VConf Rank
SciTegic.value.IntegerValue
198

@<SCITEGIC>MOL_PROPERTY
Conf_Id
SciTegic.value.IntegerValue
104

@<SCITEGIC>MOL_PROPERTY
Delta U+W
SciTegic.value.DoubleValue
-1.172

@<SCITEGIC>MOL_PROPERTY
U+W
SciTegic.value.DoubleValue
5.252

@<SCITEGIC>MOL_PROPERTY
Grad RMS
SciTegic.value.DoubleValue
0.000000

@<SCITEGIC>MOL_PROPERTY
U
SciTegic.value.DoubleValue
7.482

@<SCITEGIC>MOL_PROPERTY
W
SciTegic.value.DoubleValue
-2.230

@<SCITEGIC>MOL_PROPERTY
W(PB)
SciTegic.value.DoubleValue
-4.220

@<SCITEGIC>MOL_PROPERTY
W(SA)
SciTegic.value.DoubleValue
1.990

@<SCITEGIC>MOL_PROPERTY
Valence
SciTegic.value.DoubleValue
12.309

@<SCITEGIC>MOL_PROPERTY
Coulomb
SciTegic.value.DoubleValue
-7.084

@<SCITEGIC>MOL_PROPERTY
VdW
SciTegic.value.DoubleValue
2.258

@<SCITEGIC>MOL_PROPERTY
VdW6
SciTegic.value.DoubleValue
-9.770

@<SCITEGIC>MOL_PROPERTY
VdW12
SciTegic.value.DoubleValue
12.028

@<SCITEGIC>MOL_PROPERTY
Bond
SciTegic.value.DoubleValue
0.284

@<SCITEGIC>MOL_PROPERTY
Angle
SciTegic.value.DoubleValue
3.491

@<SCITEGIC>MOL_PROPERTY
Pdih
SciTegic.value.DoubleValue
8.535

@<SCITEGIC>MOL_PROPERTY
Idih
SciTegic.value.DoubleValue
0.000

@<SCITEGIC>MOL_PROPERTY
Tether
SciTegic.value.DoubleValue
0.000

@<TRIPOS>MOLECULE
guest-5_confgen4.mol2 : confsearch ligand conformer 199
          22          22           1
SMALL
USER_CHARGES
 
@<TRIPOS>ATOM
       1    C1      21.562724   18.916157   22.759997 C.3        1 MOL1        -0.1685
       2    H1      21.811661   19.175863   21.722179 H          1 MOL1         0.0832
       3    H2      22.434506   18.375828   23.153673 H          1 MOL1         0.0832
       4    C2      20.349677   17.959560   22.814054 C.3        1 MOL1        -0.1685
       5    H3      20.695402   16.942103   22.584913 H          1 MOL1         0.0832
       6    H4      19.974088   17.906441   23.844320 H          1 MOL1         0.0832
       7    C3      19.187956   18.292802   21.843988 C.3        1 MOL1        -0.1685
       8    H5      18.259143   17.876212   22.257597 H          1 MOL1         0.0832
       9    H6      19.355565   17.751997   20.902518 H          1 MOL1         0.0832
      10    C4      18.962658   19.788000   21.490676 C.3        1 MOL1        -0.1761
      11    H7      19.697880   20.092802   20.734700 H          1 MOL1         0.0832
      12    H8      17.987169   19.875732   20.994969 H          1 MOL1         0.0832
      13    C5      19.001388   20.801197   22.657686 C.3        1 MOL1         0.1218
      14    H9      18.452608   21.696466   22.331777 H          1 MOL1         0.0789
      15    C6      20.435317   21.258982   23.007754 C.3        1 MOL1        -0.1761
      16    H10     20.904481   21.667785   22.103416 H          1 MOL1         0.0832
      17    H11     20.364147   22.100106   23.709673 H          1 MOL1         0.0832
      18    C7      21.372881   20.188669   23.619469 C.3        1 MOL1        -0.1685
      19    H12     22.357273   20.651665   23.772173 H          1 MOL1         0.0832
      20    H13     21.018449   19.912027   24.621629 H          1 MOL1         0.0832
      21    O1      18.365378   20.262992   23.806596 O.3        1 MOL1        -0.5509
      22    H14     18.853359   19.434134   23.983102 H          1 MOL1         0.3779
@<TRIPOS>BOND
    1     1     2    1
    2     1     3    1
    3     1     4    1
    4     4     5    1
    5     4     6    1
    6     4     7    1
    7     7     8    1
    8     7     9    1
    9     7    10    1
   10    10    11    1
   11    10    12    1
   12    10    13    1
   13    13    14    1
   14    13    15    1
   15    15    16    1
   16    15    17    1
   17     1    18    1
   18    15    18    1
   19    18    19    1
   20    18    20    1
   21    13    21    1
   22    21    22    1
@<TRIPOS>SUBSTRUCTURE
       1 MOL1            1 RESIDUE      1      MOL     
@<SCITEGIC>MOL_PROPERTY
VConf Rank
SciTegic.value.IntegerValue
199

@<SCITEGIC>MOL_PROPERTY
Conf_Id
SciTegic.value.IntegerValue
99

@<SCITEGIC>MOL_PROPERTY
Delta U+W
SciTegic.value.DoubleValue
-3.852

@<SCITEGIC>MOL_PROPERTY
U+W
SciTegic.value.DoubleValue
2.572

@<SCITEGIC>MOL_PROPERTY
Grad RMS
SciTegic.value.DoubleValue
0.000000

@<SCITEGIC>MOL_PROPERTY
U
SciTegic.value.DoubleValue
3.922

@<SCITEGIC>MOL_PROPERTY
W
SciTegic.value.DoubleValue
-1.350

@<SCITEGIC>MOL_PROPERTY
W(PB)
SciTegic.value.DoubleValue
-3.345

@<SCITEGIC>MOL_PROPERTY
W(SA)
SciTegic.value.DoubleValue
1.995

@<SCITEGIC>MOL_PROPERTY
Valence
SciTegic.value.DoubleValue
12.571

@<SCITEGIC>MOL_PROPERTY
Coulomb
SciTegic.value.DoubleValue
-10.581

@<SCITEGIC>MOL_PROPERTY
VdW
SciTegic.value.DoubleValue
1.932

@<SCITEGIC>MOL_PROPERTY
VdW6
SciTegic.value.DoubleValue
-10.483

@<SCITEGIC>MOL_PROPERTY
VdW12
SciTegic.value.DoubleValue
12.415

@<SCITEGIC>MOL_PROPERTY
Bond
SciTegic.value.DoubleValue
0.268

@<SCITEGIC>MOL_PROPERTY
Angle
SciTegic.value.DoubleValue
3.728

@<SCITEGIC>MOL_PROPERTY
Pdih
SciTegic.value.DoubleValue
8.575

@<SCITEGIC>MOL_PROPERTY
Idih
SciTegic.value.DoubleValue
0.000

@<SCITEGIC>MOL_PROPERTY
Tether
SciTegic.value.DoubleValue
0.000

@<TRIPOS>MOLECULE
guest-5_confgen4.mol2 : confsearch ligand conformer 200
          22          22           1
SMALL
USER_CHARGES
 
@<TRIPOS>ATOM
       1    C1      19.962156   21.113883   22.004323 C.3        1 MOL1        -0.1685
       2    H1      19.784004   21.785950   21.153512 H          1 MOL1         0.0832
       3    H2      20.150593   21.780171   22.856734 H          1 MOL1         0.0832
       4    C2      21.233702   20.272367   21.689882 C.3        1 MOL1        -0.1685
       5    H3      21.606007   20.580317   20.703045 H          1 MOL1         0.0832
       6    H4      22.040200   20.529476   22.389532 H          1 MOL1         0.0832
       7    C3      21.040678   18.734588   21.662918 C.3        1 MOL1        -0.1685
       8    H5      21.948322   18.278808   21.244380 H          1 MOL1         0.0832
       9    H6      20.247735   18.473325   20.951192 H          1 MOL1         0.0832
      10    C4      20.758512   18.059259   23.033736 C.3        1 MOL1        -0.1761
      11    H7      20.265395   17.096648   22.846767 H          1 MOL1         0.0832
      12    H8      21.720023   17.806781   23.500370 H          1 MOL1         0.0832
      13    C5      19.924808   18.842336   24.077712 C.3        1 MOL1         0.1218
      14    H9      19.646597   18.127572   24.865422 H          1 MOL1         0.0789
      15    C6      18.610472   19.481147   23.565283 C.3        1 MOL1        -0.1761
      16    H10     17.863390   18.686633   23.441361 H          1 MOL1         0.0832
      17    H11     18.220672   20.123437   24.366231 H          1 MOL1         0.0832
      18    C7      18.660056   20.310124   22.251837 C.3        1 MOL1        -0.1685
      19    H12     18.459423   19.656701   21.393728 H          1 MOL1         0.0832
      20    H13     17.816310   21.013405   22.266399 H          1 MOL1         0.0832
      21    O1      20.733938   19.838467   24.682918 O.3        1 MOL1        -0.5509
      22    H14     20.952877   20.444508   23.946906 H          1 MOL1         0.3779
@<TRIPOS>BOND
    1     1     2    1
    2     1     3    1
    3     1     4    1
    4     4     5    1
    5     4     6    1
    6     4     7    1
    7     7     8    1
    8     7     9    1
    9     7    10    1
   10    10    11    1
   11    10    12    1
   12    10    13    1
   13    13    14    1
   14    13    15    1
   15    15    16    1
   16    15    17    1
   17     1    18    1
   18    15    18    1
   19    18    19    1
   20    18    20    1
   21    13    21    1
   22    21    22    1
@<TRIPOS>SUBSTRUCTURE
       1 MOL1            1 RESIDUE      1      MOL     
@<SCITEGIC>MOL_PROPERTY
VConf Rank
SciTegic.value.IntegerValue
200

@<SCITEGIC>MOL_PROPERTY
Conf_Id
SciTegic.value.IntegerValue
98

@<SCITEGIC>MOL_PROPERTY
Delta U+W
SciTegic.value.DoubleValue
0.930

@<SCITEGIC>MOL_PROPERTY
U+W
SciTegic.value.DoubleValue
7.353

@<SCITEGIC>MOL_PROPERTY
Grad RMS
SciTegic.value.DoubleValue
0.000000

@<SCITEGIC>MOL_PROPERTY
U
SciTegic.value.DoubleValue
8.455

@<SCITEGIC>MOL_PROPERTY
W
SciTegic.value.DoubleValue
-1.102

@<SCITEGIC>MOL_PROPERTY
W(PB)
SciTegic.value.DoubleValue
-3.101

@<SCITEGIC>MOL_PROPERTY
W(SA)
SciTegic.value.DoubleValue
2.000

@<SCITEGIC>MOL_PROPERTY
Valence
SciTegic.value.DoubleValue
15.601

@<SCITEGIC>MOL_PROPERTY
Coulomb
SciTegic.value.DoubleValue
-10.573

@<SCITEGIC>MOL_PROPERTY
VdW
SciTegic.value.DoubleValue
3.427

@<SCITEGIC>MOL_PROPERTY
VdW6
SciTegic.value.DoubleValue
-11.360

@<SCITEGIC>MOL_PROPERTY
VdW12
SciTegic.value.DoubleValue
14.787

@<SCITEGIC>MOL_PROPERTY
Bond
SciTegic.value.DoubleValue
0.471

@<SCITEGIC>MOL_PROPERTY
Angle
SciTegic.value.DoubleValue
5.445

@<SCITEGIC>MOL_PROPERTY
Pdih
SciTegic.value.DoubleValue
9.685

@<SCITEGIC>MOL_PROPERTY
Idih
SciTegic.value.DoubleValue
0.000

@<SCITEGIC>MOL_PROPERTY
Tether
SciTegic.value.DoubleValue
0.000

@<TRIPOS>MOLECULE
guest-5_confgen4.mol2 : confsearch ligand conformer 201
          22          22           1
SMALL
USER_CHARGES
 
@<TRIPOS>ATOM
       1    C1      21.648559   19.856800   23.083711 C.3        1 MOL1        -0.1685
       2    H1      21.940526   19.294319   22.187524 H          1 MOL1         0.0832
       3    H2      22.592206   20.222935   23.510546 H          1 MOL1         0.0832
       4    C2      20.981682   18.902669   24.106975 C.3        1 MOL1        -0.1685
       5    H3      21.711193   18.118741   24.352221 H          1 MOL1         0.0832
       6    H4      20.797192   19.441602   25.046197 H          1 MOL1         0.0832
       7    C3      19.667207   18.213103   23.647302 C.3        1 MOL1        -0.1685
       8    H5      18.802503   18.701597   24.114929 H          1 MOL1         0.0832
       9    H6      19.661367   17.188511   24.043295 H          1 MOL1         0.0832
      10    C4      19.459097   18.153328   22.110804 C.3        1 MOL1        -0.1761
      11    H7      20.353106   17.722572   21.643020 H          1 MOL1         0.0832
      12    H8      18.656307   17.434201   21.899209 H          1 MOL1         0.0832
      13    C5      19.120264   19.505393   21.417273 C.3        1 MOL1         0.1218
      14    H9      19.747845   19.591786   20.518526 H          1 MOL1         0.0789
      15    C6      19.328756   20.777799   22.276208 C.3        1 MOL1        -0.1761
      16    H10     18.943340   21.645610   21.725376 H          1 MOL1         0.0832
      17    H11     18.712006   20.717514   23.180960 H          1 MOL1         0.0832
      18    C7      20.796057   21.079663   22.670814 C.3        1 MOL1        -0.1685
      19    H12     21.296027   21.575603   21.827672 H          1 MOL1         0.0832
      20    H13     20.792793   21.810213   23.491154 H          1 MOL1         0.0832
      21    O1      17.753959   19.478214   21.020224 O.3        1 MOL1        -0.5509
      22    H14     17.583261   20.313629   20.537397 H          1 MOL1         0.3779
@<TRIPOS>BOND
    1     1     2    1
    2     1     3    1
    3     1     4    1
    4     4     5    1
    5     4     6    1
    6     4     7    1
    7     7     8    1
    8     7     9    1
    9     7    10    1
   10    10    11    1
   11    10    12    1
   12    10    13    1
   13    13    14    1
   14    13    15    1
   15    15    16    1
   16    15    17    1
   17     1    18    1
   18    15    18    1
   19    18    19    1
   20    18    20    1
   21    13    21    1
   22    21    22    1
@<TRIPOS>SUBSTRUCTURE
       1 MOL1            1 RESIDUE      1      MOL     
@<SCITEGIC>MOL_PROPERTY
VConf Rank
SciTegic.value.IntegerValue
201

@<SCITEGIC>MOL_PROPERTY
Conf_Id
SciTegic.value.IntegerValue
141

@<SCITEGIC>MOL_PROPERTY
Delta U+W
SciTegic.value.DoubleValue
0.000

@<SCITEGIC>MOL_PROPERTY
U+W
SciTegic.value.DoubleValue
6.423

@<SCITEGIC>MOL_PROPERTY
Grad RMS
SciTegic.value.DoubleValue
0.000000

@<SCITEGIC>MOL_PROPERTY
U
SciTegic.value.DoubleValue
8.781

@<SCITEGIC>MOL_PROPERTY
W
SciTegic.value.DoubleValue
-2.358

@<SCITEGIC>MOL_PROPERTY
W(PB)
SciTegic.value.DoubleValue
-4.373

@<SCITEGIC>MOL_PROPERTY
W(SA)
SciTegic.value.DoubleValue
2.015

@<SCITEGIC>MOL_PROPERTY
Valence
SciTegic.value.DoubleValue
13.328

@<SCITEGIC>MOL_PROPERTY
Coulomb
SciTegic.value.DoubleValue
-8.387

@<SCITEGIC>MOL_PROPERTY
VdW
SciTegic.value.DoubleValue
3.840

@<SCITEGIC>MOL_PROPERTY
VdW6
SciTegic.value.DoubleValue
-9.744

@<SCITEGIC>MOL_PROPERTY
VdW12
SciTegic.value.DoubleValue
13.584

@<SCITEGIC>MOL_PROPERTY
Bond
SciTegic.value.DoubleValue
0.436

@<SCITEGIC>MOL_PROPERTY
Angle
SciTegic.value.DoubleValue
3.478

@<SCITEGIC>MOL_PROPERTY
Pdih
SciTegic.value.DoubleValue
9.415

@<SCITEGIC>MOL_PROPERTY
Idih
SciTegic.value.DoubleValue
0.000

@<SCITEGIC>MOL_PROPERTY
Tether
SciTegic.value.DoubleValue
0.000

@<TRIPOS>MOLECULE
guest-5_confgen4.mol2 : confsearch ligand conformer 202
          22          22           1
SMALL
USER_CHARGES
 
@<TRIPOS>ATOM
       1    C1      19.548961   21.256912   23.056918 C.3        1 MOL1        -0.1685
       2    H1      19.978561   21.577646   22.098178 H          1 MOL1         0.0832
       3    H2      19.127909   22.160568   23.518464 H          1 MOL1         0.0832
       4    C2      20.648144   20.715246   24.002460 C.3        1 MOL1        -0.1685
       5    H3      21.292305   21.551886   24.305685 H          1 MOL1         0.0832
       6    H4      20.183637   20.346028   24.927009 H          1 MOL1         0.0832
       7    C3      21.545864   19.607972   23.403818 C.3        1 MOL1        -0.1685
       8    H5      22.233869   19.263709   24.188011 H          1 MOL1         0.0832
       9    H6      22.180068   20.038265   22.616676 H          1 MOL1         0.0832
      10    C4      20.785329   18.382496   22.840814 C.3        1 MOL1        -0.1761
      11    H7      21.521395   17.586952   22.665314 H          1 MOL1         0.0832
      12    H8      20.081178   17.988349   23.585003 H          1 MOL1         0.0832
      13    C5      20.054733   18.691457   21.514767 C.3        1 MOL1         0.1218
      14    H9      20.644987   19.436441   20.962100 H          1 MOL1         0.0789
      15    C6      18.619438   19.239356   21.685159 C.3        1 MOL1        -0.1761
      16    H10     18.331465   19.713900   20.738201 H          1 MOL1         0.0832
      17    H11     17.924459   18.400525   21.824721 H          1 MOL1         0.0832
      18    C7      18.395026   20.250900   22.836880 C.3        1 MOL1        -0.1685
      19    H12     17.472027   20.807554   22.624670 H          1 MOL1         0.0832
      20    H13     18.201794   19.706757   23.771375 H          1 MOL1         0.0832
      21    O1      19.982559   17.499087   20.742587 O.3        1 MOL1        -0.5509
      22    H14     20.905347   17.210502   20.581963 H          1 MOL1         0.3779
@<TRIPOS>BOND
    1     1     2    1
    2     1     3    1
    3     1     4    1
    4     4     5    1
    5     4     6    1
    6     4     7    1
    7     7     8    1
    8     7     9    1
    9     7    10    1
   10    10    11    1
   11    10    12    1
   12    10    13    1
   13    13    14    1
   14    13    15    1
   15    15    16    1
   16    15    17    1
   17     1    18    1
   18    15    18    1
   19    18    19    1
   20    18    20    1
   21    13    21    1
   22    21    22    1
@<TRIPOS>SUBSTRUCTURE
       1 MOL1            1 RESIDUE      1      MOL     
@<SCITEGIC>MOL_PROPERTY
VConf Rank
SciTegic.value.IntegerValue
202

@<SCITEGIC>MOL_PROPERTY
Conf_Id
SciTegic.value.IntegerValue
144

@<SCITEGIC>MOL_PROPERTY
Delta U+W
SciTegic.value.DoubleValue
-3.291

@<SCITEGIC>MOL_PROPERTY
U+W
SciTegic.value.DoubleValue
3.132

@<SCITEGIC>MOL_PROPERTY
Grad RMS
SciTegic.value.DoubleValue
0.000000

@<SCITEGIC>MOL_PROPERTY
U
SciTegic.value.DoubleValue
5.411

@<SCITEGIC>MOL_PROPERTY
W
SciTegic.value.DoubleValue
-2.279

@<SCITEGIC>MOL_PROPERTY
W(PB)
SciTegic.value.DoubleValue
-4.300

@<SCITEGIC>MOL_PROPERTY
W(SA)
SciTegic.value.DoubleValue
2.021

@<SCITEGIC>MOL_PROPERTY
Valence
SciTegic.value.DoubleValue
11.909

@<SCITEGIC>MOL_PROPERTY
Coulomb
SciTegic.value.DoubleValue
-8.733

@<SCITEGIC>MOL_PROPERTY
VdW
SciTegic.value.DoubleValue
2.236

@<SCITEGIC>MOL_PROPERTY
VdW6
SciTegic.value.DoubleValue
-8.936

@<SCITEGIC>MOL_PROPERTY
VdW12
SciTegic.value.DoubleValue
11.172

@<SCITEGIC>MOL_PROPERTY
Bond
SciTegic.value.DoubleValue
0.223

@<SCITEGIC>MOL_PROPERTY
Angle
SciTegic.value.DoubleValue
2.457

@<SCITEGIC>MOL_PROPERTY
Pdih
SciTegic.value.DoubleValue
9.228

@<SCITEGIC>MOL_PROPERTY
Idih
SciTegic.value.DoubleValue
0.000

@<SCITEGIC>MOL_PROPERTY
Tether
SciTegic.value.DoubleValue
0.000

@<TRIPOS>MOLECULE
guest-5_confgen4.mol2 : confsearch ligand conformer 203
          22          22           1
SMALL
USER_CHARGES
 
@<TRIPOS>ATOM
       1    C1      20.076810   21.058430   21.806014 C.3        1 MOL1        -0.1685
       2    H1      19.882401   21.953519   21.199458 H          1 MOL1         0.0832
       3    H2      21.113701   21.148701   22.157284 H          1 MOL1         0.0832
       4    C2      19.908968   19.818675   20.896667 C.3        1 MOL1        -0.1685
       5    H3      18.843906   19.559243   20.825164 H          1 MOL1         0.0832
       6    H4      20.215071   20.083136   19.875217 H          1 MOL1         0.0832
       7    C3      20.719072   18.572732   21.329424 C.3        1 MOL1        -0.1685
       8    H5      21.743907   18.661069   20.943646 H          1 MOL1         0.0832
       9    H6      20.287628   17.693858   20.830971 H          1 MOL1         0.0832
      10    C4      20.798843   18.300234   22.851765 C.3        1 MOL1        -0.1761
      11    H7      21.095704   17.251811   22.990155 H          1 MOL1         0.0832
      12    H8      21.611454   18.899039   23.283030 H          1 MOL1         0.0832
      13    C5      19.493335   18.573677   23.631812 C.3        1 MOL1         0.1218
      14    H9      18.628289   18.325738   23.000393 H          1 MOL1         0.0789
      15    C6      19.384035   20.039841   24.108669 C.3        1 MOL1        -0.1761
      16    H10     18.582698   20.107571   24.856602 H          1 MOL1         0.0832
      17    H11     20.308113   20.326176   24.627493 H          1 MOL1         0.0832
      18    C7      19.086733   21.072251   22.995361 C.3        1 MOL1        -0.1685
      19    H12     18.065032   20.920148   22.621304 H          1 MOL1         0.0832
      20    H13     19.094290   22.074203   23.445721 H          1 MOL1         0.0832
      21    O1      19.476714   17.738516   24.781787 O.3        1 MOL1        -0.5509
      22    H14     20.259368   17.987058   25.315491 H          1 MOL1         0.3779
@<TRIPOS>BOND
    1     1     2    1
    2     1     3    1
    3     1     4    1
    4     4     5    1
    5     4     6    1
    6     4     7    1
    7     7     8    1
    8     7     9    1
    9     7    10    1
   10    10    11    1
   11    10    12    1
   12    10    13    1
   13    13    14    1
   14    13    15    1
   15    15    16    1
   16    15    17    1
   17     1    18    1
   18    15    18    1
   19    18    19    1
   20    18    20    1
   21    13    21    1
   22    21    22    1
@<TRIPOS>SUBSTRUCTURE
       1 MOL1            1 RESIDUE      1      MOL     
@<SCITEGIC>MOL_PROPERTY
VConf Rank
SciTegic.value.IntegerValue
203

@<SCITEGIC>MOL_PROPERTY
Conf_Id
SciTegic.value.IntegerValue
76

@<SCITEGIC>MOL_PROPERTY
Delta U+W
SciTegic.value.DoubleValue
-3.175

@<SCITEGIC>MOL_PROPERTY
U+W
SciTegic.value.DoubleValue
3.248

@<SCITEGIC>MOL_PROPERTY
Grad RMS
SciTegic.value.DoubleValue
0.000000

@<SCITEGIC>MOL_PROPERTY
U
SciTegic.value.DoubleValue
5.336

@<SCITEGIC>MOL_PROPERTY
W
SciTegic.value.DoubleValue
-2.088

@<SCITEGIC>MOL_PROPERTY
W(PB)
SciTegic.value.DoubleValue
-4.098

@<SCITEGIC>MOL_PROPERTY
W(SA)
SciTegic.value.DoubleValue
2.010

@<SCITEGIC>MOL_PROPERTY
Valence
SciTegic.value.DoubleValue
12.390

@<SCITEGIC>MOL_PROPERTY
Coulomb
SciTegic.value.DoubleValue
-9.270

@<SCITEGIC>MOL_PROPERTY
VdW
SciTegic.value.DoubleValue
2.216

@<SCITEGIC>MOL_PROPERTY
VdW6
SciTegic.value.DoubleValue
-8.967

@<SCITEGIC>MOL_PROPERTY
VdW12
SciTegic.value.DoubleValue
11.183

@<SCITEGIC>MOL_PROPERTY
Bond
SciTegic.value.DoubleValue
0.218

@<SCITEGIC>MOL_PROPERTY
Angle
SciTegic.value.DoubleValue
2.426

@<SCITEGIC>MOL_PROPERTY
Pdih
SciTegic.value.DoubleValue
9.745

@<SCITEGIC>MOL_PROPERTY
Idih
SciTegic.value.DoubleValue
0.000

@<SCITEGIC>MOL_PROPERTY
Tether
SciTegic.value.DoubleValue
0.000

@<TRIPOS>MOLECULE
guest-5_confgen4.mol2 : confsearch ligand conformer 204
          22          22           1
SMALL
USER_CHARGES
 
@<TRIPOS>ATOM
       1    C1      20.145598   17.683774   22.691862 C.3        1 MOL1        -0.1685
       2    H1      20.223225   17.023966   23.566739 H          1 MOL1         0.0832
       3    H2      20.039228   17.017765   21.824721 H          1 MOL1         0.0832
       4    C2      21.471481   18.470750   22.560036 C.3        1 MOL1        -0.1685
       5    H3      21.853484   18.715586   23.560340 H          1 MOL1         0.0832
       6    H4      22.220611   17.801492   22.115423 H          1 MOL1         0.0832
       7    C3      21.384874   19.761278   21.712345 C.3        1 MOL1        -0.1685
       8    H5      20.710971   19.624940   20.855547 H          1 MOL1         0.0832
       9    H6      22.379080   19.958932   21.289525 H          1 MOL1         0.0832
      10    C4      20.972003   21.000535   22.546529 C.3        1 MOL1        -0.1761
      11    H7      21.615861   21.069770   23.432625 H          1 MOL1         0.0832
      12    H8      21.181379   21.903935   21.958784 H          1 MOL1         0.0832
      13    C5      19.495110   21.058295   22.998797 C.3        1 MOL1         0.1218
      14    H9      19.416090   21.885882   23.718486 H          1 MOL1         0.0789
      15    C6      18.973195   19.784536   23.709874 C.3        1 MOL1        -0.1761
      16    H10     19.600702   19.562083   24.582587 H          1 MOL1         0.0832
      17    H11     17.977978   20.014098   24.111910 H          1 MOL1         0.0832
      18    C7      18.854295   18.528296   22.808242 C.3        1 MOL1        -0.1685
      19    H12     18.062561   17.880150   23.207599 H          1 MOL1         0.0832
      20    H13     18.515557   18.815826   21.804238 H          1 MOL1         0.0832
      21    O1      18.672162   21.365273   21.877840 O.3        1 MOL1        -0.5509
      22    H14     17.746776   21.340645   22.196175 H          1 MOL1         0.3779
@<TRIPOS>BOND
    1     1     2    1
    2     1     3    1
    3     1     4    1
    4     4     5    1
    5     4     6    1
    6     4     7    1
    7     7     8    1
    8     7     9    1
    9     7    10    1
   10    10    11    1
   11    10    12    1
   12    10    13    1
   13    13    14    1
   14    13    15    1
   15    15    16    1
   16    15    17    1
   17     1    18    1
   18    15    18    1
   19    18    19    1
   20    18    20    1
   21    13    21    1
   22    21    22    1
@<TRIPOS>SUBSTRUCTURE
       1 MOL1            1 RESIDUE      1      MOL     
@<SCITEGIC>MOL_PROPERTY
VConf Rank
SciTegic.value.IntegerValue
204

@<SCITEGIC>MOL_PROPERTY
Conf_Id
SciTegic.value.IntegerValue
95

@<SCITEGIC>MOL_PROPERTY
Delta U+W
SciTegic.value.DoubleValue
-2.289

@<SCITEGIC>MOL_PROPERTY
U+W
SciTegic.value.DoubleValue
4.134

@<SCITEGIC>MOL_PROPERTY
Grad RMS
SciTegic.value.DoubleValue
0.000000

@<SCITEGIC>MOL_PROPERTY
U
SciTegic.value.DoubleValue
6.373

@<SCITEGIC>MOL_PROPERTY
W
SciTegic.value.DoubleValue
-2.240

@<SCITEGIC>MOL_PROPERTY
W(PB)
SciTegic.value.DoubleValue
-4.254

@<SCITEGIC>MOL_PROPERTY
W(SA)
SciTegic.value.DoubleValue
2.015

@<SCITEGIC>MOL_PROPERTY
Valence
SciTegic.value.DoubleValue
12.093

@<SCITEGIC>MOL_PROPERTY
Coulomb
SciTegic.value.DoubleValue
-8.058

@<SCITEGIC>MOL_PROPERTY
VdW
SciTegic.value.DoubleValue
2.339

@<SCITEGIC>MOL_PROPERTY
VdW6
SciTegic.value.DoubleValue
-9.683

@<SCITEGIC>MOL_PROPERTY
VdW12
SciTegic.value.DoubleValue
12.022

@<SCITEGIC>MOL_PROPERTY
Bond
SciTegic.value.DoubleValue
0.268

@<SCITEGIC>MOL_PROPERTY
Angle
SciTegic.value.DoubleValue
3.005

@<SCITEGIC>MOL_PROPERTY
Pdih
SciTegic.value.DoubleValue
8.820

@<SCITEGIC>MOL_PROPERTY
Idih
SciTegic.value.DoubleValue
0.000

@<SCITEGIC>MOL_PROPERTY
Tether
SciTegic.value.DoubleValue
0.000

@<TRIPOS>MOLECULE
guest-5_confgen4.mol2 : confsearch ligand conformer 205
          22          22           1
SMALL
USER_CHARGES
 
@<TRIPOS>ATOM
       1    C1      18.154586   19.527611   22.971551 C.3        1 MOL1        -0.1685
       2    H1      17.360157   19.939572   22.334429 H          1 MOL1         0.0832
       3    H2      17.639763   19.001465   23.786975 H          1 MOL1         0.0832
       4    C2      18.959010   20.708096   23.566266 C.3        1 MOL1        -0.1685
       5    H3      19.031968   21.512821   22.822239 H          1 MOL1         0.0832
       6    H4      18.378229   21.129526   24.398065 H          1 MOL1         0.0832
       7    C3      20.374228   20.346810   24.074346 C.3        1 MOL1        -0.1685
       8    H5      20.381031   19.355210   24.547107 H          1 MOL1         0.0832
       9    H6      20.645759   21.062188   24.862338 H          1 MOL1         0.0832
      10    C4      21.449676   20.438296   22.962433 C.3        1 MOL1        -0.1761
      11    H7      21.359008   21.407001   22.454214 H          1 MOL1         0.0832
      12    H8      22.441261   20.448428   23.433219 H          1 MOL1         0.0832
      13    C5      21.427294   19.317437   21.898051 C.3        1 MOL1         0.1218
      14    H9      22.122343   19.621412   21.102057 H          1 MOL1         0.0789
      15    C6      20.051115   19.072062   21.230027 C.3        1 MOL1        -0.1761
      16    H10     19.690026   19.998209   20.764886 H          1 MOL1         0.0832
      17    H11     20.212272   18.365548   20.405591 H          1 MOL1         0.0832
      18    C7      18.960761   18.483405   22.162793 C.3        1 MOL1        -0.1685
      19    H12     18.250965   17.906313   21.555034 H          1 MOL1         0.0832
      20    H13     19.411269   17.755924   22.850858 H          1 MOL1         0.0832
      21    O1      21.913957   18.109158   22.474345 O.3        1 MOL1        -0.5509
      22    H14     22.771657   18.323325   22.894666 H          1 MOL1         0.3779
@<TRIPOS>BOND
    1     1     2    1
    2     1     3    1
    3     1     4    1
    4     4     5    1
    5     4     6    1
    6     4     7    1
    7     7     8    1
    8     7     9    1
    9     7    10    1
   10    10    11    1
   11    10    12    1
   12    10    13    1
   13    13    14    1
   14    13    15    1
   15    15    16    1
   16    15    17    1
   17     1    18    1
   18    15    18    1
   19    18    19    1
   20    18    20    1
   21    13    21    1
   22    21    22    1
@<TRIPOS>SUBSTRUCTURE
       1 MOL1            1 RESIDUE      1      MOL     
@<SCITEGIC>MOL_PROPERTY
VConf Rank
SciTegic.value.IntegerValue
205

@<SCITEGIC>MOL_PROPERTY
Conf_Id
SciTegic.value.IntegerValue
41

@<SCITEGIC>MOL_PROPERTY
Delta U+W
SciTegic.value.DoubleValue
-2.114

@<SCITEGIC>MOL_PROPERTY
U+W
SciTegic.value.DoubleValue
4.310

@<SCITEGIC>MOL_PROPERTY
Grad RMS
SciTegic.value.DoubleValue
0.000000

@<SCITEGIC>MOL_PROPERTY
U
SciTegic.value.DoubleValue
6.598

@<SCITEGIC>MOL_PROPERTY
W
SciTegic.value.DoubleValue
-2.289

@<SCITEGIC>MOL_PROPERTY
W(PB)
SciTegic.value.DoubleValue
-4.294

@<SCITEGIC>MOL_PROPERTY
W(SA)
SciTegic.value.DoubleValue
2.005

@<SCITEGIC>MOL_PROPERTY
Valence
SciTegic.value.DoubleValue
12.082

@<SCITEGIC>MOL_PROPERTY
Coulomb
SciTegic.value.DoubleValue
-7.801

@<SCITEGIC>MOL_PROPERTY
VdW
SciTegic.value.DoubleValue
2.317

@<SCITEGIC>MOL_PROPERTY
VdW6
SciTegic.value.DoubleValue
-9.658

@<SCITEGIC>MOL_PROPERTY
VdW12
SciTegic.value.DoubleValue
11.975

@<SCITEGIC>MOL_PROPERTY
Bond
SciTegic.value.DoubleValue
0.267

@<SCITEGIC>MOL_PROPERTY
Angle
SciTegic.value.DoubleValue
3.051

@<SCITEGIC>MOL_PROPERTY
Pdih
SciTegic.value.DoubleValue
8.764

@<SCITEGIC>MOL_PROPERTY
Idih
SciTegic.value.DoubleValue
0.000

@<SCITEGIC>MOL_PROPERTY
Tether
SciTegic.value.DoubleValue
0.000

@<TRIPOS>MOLECULE
guest-5_confgen4.mol2 : confsearch ligand conformer 206
          22          22           1
SMALL
USER_CHARGES
 
@<TRIPOS>ATOM
       1    C1      21.198194   18.312954   22.910073 C.3        1 MOL1        -0.1685
       2    H1      22.025586   17.662814   23.225177 H          1 MOL1         0.0832
       3    H2      20.487575   17.669041   22.373815 H          1 MOL1         0.0832
       4    C2      21.776196   19.392370   21.967649 C.3        1 MOL1        -0.1685
       5    H3      22.434955   20.062413   22.536559 H          1 MOL1         0.0832
       6    H4      22.416957   18.901129   21.222889 H          1 MOL1         0.0832
       7    C3      20.715548   20.227454   21.217394 C.3        1 MOL1        -0.1685
       8    H5      20.196512   19.589924   20.489351 H          1 MOL1         0.0832
       9    H6      21.241264   20.985808   20.621870 H          1 MOL1         0.0832
      10    C4      19.681564   20.948877   22.123821 C.3        1 MOL1        -0.1761
      11    H7      20.199300   21.525346   22.900925 H          1 MOL1         0.0832
      12    H8      19.157395   21.688959   21.505671 H          1 MOL1         0.0832
      13    C5      18.599723   20.046292   22.771118 C.3        1 MOL1         0.1218
      14    H9      17.787898   20.712148   23.098002 H          1 MOL1         0.0789
      15    C6      19.042287   19.256034   24.029994 C.3        1 MOL1        -0.1761
      16    H10     18.749229   19.836349   24.914535 H          1 MOL1         0.0832
      17    H11     18.462224   18.325810   24.090683 H          1 MOL1         0.0832
      18    C7      20.545587   18.912654   24.175174 C.3        1 MOL1        -0.1685
      19    H12     21.102708   19.803939   24.493989 H          1 MOL1         0.0832
      20    H13     20.647352   18.192077   24.998029 H          1 MOL1         0.0832
      21    O1      18.058065   19.147779   21.806648 O.3        1 MOL1        -0.5509
      22    H14     17.357769   18.635460   22.259444 H          1 MOL1         0.3779
@<TRIPOS>BOND
    1     1     2    1
    2     1     3    1
    3     1     4    1
    4     4     5    1
    5     4     6    1
    6     4     7    1
    7     7     8    1
    8     7     9    1
    9     7    10    1
   10    10    11    1
   11    10    12    1
   12    10    13    1
   13    13    14    1
   14    13    15    1
   15    15    16    1
   16    15    17    1
   17     1    18    1
   18    15    18    1
   19    18    19    1
   20    18    20    1
   21    13    21    1
   22    21    22    1
@<TRIPOS>SUBSTRUCTURE
       1 MOL1            1 RESIDUE      1      MOL     
@<SCITEGIC>MOL_PROPERTY
VConf Rank
SciTegic.value.IntegerValue
206

@<SCITEGIC>MOL_PROPERTY
Conf_Id
SciTegic.value.IntegerValue
104

@<SCITEGIC>MOL_PROPERTY
Delta U+W
SciTegic.value.DoubleValue
-1.172

@<SCITEGIC>MOL_PROPERTY
U+W
SciTegic.value.DoubleValue
5.252

@<SCITEGIC>MOL_PROPERTY
Grad RMS
SciTegic.value.DoubleValue
0.000000

@<SCITEGIC>MOL_PROPERTY
U
SciTegic.value.DoubleValue
7.482

@<SCITEGIC>MOL_PROPERTY
W
SciTegic.value.DoubleValue
-2.230

@<SCITEGIC>MOL_PROPERTY
W(PB)
SciTegic.value.DoubleValue
-4.220

@<SCITEGIC>MOL_PROPERTY
W(SA)
SciTegic.value.DoubleValue
1.990

@<SCITEGIC>MOL_PROPERTY
Valence
SciTegic.value.DoubleValue
12.309

@<SCITEGIC>MOL_PROPERTY
Coulomb
SciTegic.value.DoubleValue
-7.084

@<SCITEGIC>MOL_PROPERTY
VdW
SciTegic.value.DoubleValue
2.258

@<SCITEGIC>MOL_PROPERTY
VdW6
SciTegic.value.DoubleValue
-9.770

@<SCITEGIC>MOL_PROPERTY
VdW12
SciTegic.value.DoubleValue
12.028

@<SCITEGIC>MOL_PROPERTY
Bond
SciTegic.value.DoubleValue
0.284

@<SCITEGIC>MOL_PROPERTY
Angle
SciTegic.value.DoubleValue
3.491

@<SCITEGIC>MOL_PROPERTY
Pdih
SciTegic.value.DoubleValue
8.535

@<SCITEGIC>MOL_PROPERTY
Idih
SciTegic.value.DoubleValue
0.000

@<SCITEGIC>MOL_PROPERTY
Tether
SciTegic.value.DoubleValue
0.000

@<TRIPOS>MOLECULE
guest-5_confgen4.mol2 : confsearch ligand conformer 207
          22          22           1
SMALL
USER_CHARGES
 
@<TRIPOS>ATOM
       1    C1      19.286781   20.769489   23.508777 C.3        1 MOL1        -0.1685
       2    H1      18.539146   20.076061   23.917045 H          1 MOL1         0.0832
       3    H2      19.019033   21.763163   23.893306 H          1 MOL1         0.0832
       4    C2      19.206582   20.822250   21.965965 C.3        1 MOL1        -0.1685
       5    H3      18.368035   21.472453   21.680790 H          1 MOL1         0.0832
       6    H4      20.100738   21.323075   21.572269 H          1 MOL1         0.0832
       7    C3      19.008600   19.458581   21.256821 C.3        1 MOL1        -0.1685
       8    H5      19.406804   19.536541   20.235708 H          1 MOL1         0.0832
       9    H6      17.930846   19.282948   21.136291 H          1 MOL1         0.0832
      10    C4      19.612712   18.204435   21.944840 C.3        1 MOL1        -0.1761
      11    H7      18.950848   17.889647   22.762029 H          1 MOL1         0.0832
      12    H8      19.590852   17.378150   21.222498 H          1 MOL1         0.0832
      13    C5      21.053494   18.326342   22.491893 C.3        1 MOL1         0.1218
      14    H9      21.460485   17.308015   22.570946 H          1 MOL1         0.0789
      15    C6      21.107470   18.940255   23.909097 C.3        1 MOL1        -0.1761
      16    H10     20.472561   18.342256   24.575692 H          1 MOL1         0.0832
      17    H11     22.129554   18.825363   24.293011 H          1 MOL1         0.0832
      18    C7      20.702309   20.429964   24.033206 C.3        1 MOL1        -0.1685
      19    H12     20.751390   20.704384   25.095748 H          1 MOL1         0.0832
      20    H13     21.447296   21.061648   23.530765 H          1 MOL1         0.0832
      21    O1      21.862912   19.078840   21.601523 O.3        1 MOL1        -0.5509
      22    H14     21.395262   19.933661   21.518639 H          1 MOL1         0.3779
@<TRIPOS>BOND
    1     1     2    1
    2     1     3    1
    3     1     4    1
    4     4     5    1
    5     4     6    1
    6     4     7    1
    7     7     8    1
    8     7     9    1
    9     7    10    1
   10    10    11    1
   11    10    12    1
   12    10    13    1
   13    13    14    1
   14    13    15    1
   15    15    16    1
   16    15    17    1
   17     1    18    1
   18    15    18    1
   19    18    19    1
   20    18    20    1
   21    13    21    1
   22    21    22    1
@<TRIPOS>SUBSTRUCTURE
       1 MOL1            1 RESIDUE      1      MOL     
@<SCITEGIC>MOL_PROPERTY
VConf Rank
SciTegic.value.IntegerValue
207

@<SCITEGIC>MOL_PROPERTY
Conf_Id
SciTegic.value.IntegerValue
99

@<SCITEGIC>MOL_PROPERTY
Delta U+W
SciTegic.value.DoubleValue
-3.852

@<SCITEGIC>MOL_PROPERTY
U+W
SciTegic.value.DoubleValue
2.572

@<SCITEGIC>MOL_PROPERTY
Grad RMS
SciTegic.value.DoubleValue
0.000000

@<SCITEGIC>MOL_PROPERTY
U
SciTegic.value.DoubleValue
3.922

@<SCITEGIC>MOL_PROPERTY
W
SciTegic.value.DoubleValue
-1.350

@<SCITEGIC>MOL_PROPERTY
W(PB)
SciTegic.value.DoubleValue
-3.345

@<SCITEGIC>MOL_PROPERTY
W(SA)
SciTegic.value.DoubleValue
1.995

@<SCITEGIC>MOL_PROPERTY
Valence
SciTegic.value.DoubleValue
12.571

@<SCITEGIC>MOL_PROPERTY
Coulomb
SciTegic.value.DoubleValue
-10.581

@<SCITEGIC>MOL_PROPERTY
VdW
SciTegic.value.DoubleValue
1.932

@<SCITEGIC>MOL_PROPERTY
VdW6
SciTegic.value.DoubleValue
-10.483

@<SCITEGIC>MOL_PROPERTY
VdW12
SciTegic.value.DoubleValue
12.415

@<SCITEGIC>MOL_PROPERTY
Bond
SciTegic.value.DoubleValue
0.268

@<SCITEGIC>MOL_PROPERTY
Angle
SciTegic.value.DoubleValue
3.728

@<SCITEGIC>MOL_PROPERTY
Pdih
SciTegic.value.DoubleValue
8.575

@<SCITEGIC>MOL_PROPERTY
Idih
SciTegic.value.DoubleValue
0.000

@<SCITEGIC>MOL_PROPERTY
Tether
SciTegic.value.DoubleValue
0.000

@<TRIPOS>MOLECULE
guest-5_confgen4.mol2 : confsearch ligand conformer 208
          22          22           1
SMALL
USER_CHARGES
 
@<TRIPOS>ATOM
       1    C1      20.890960   18.245068   22.131209 C.3        1 MOL1        -0.1685
       2    H1      21.379121   17.664234   21.336463 H          1 MOL1         0.0832
       3    H2      21.009044   17.638025   23.038738 H          1 MOL1         0.0832
       4    C2      19.383056   18.378497   21.767514 C.3        1 MOL1        -0.1685
       5    H3      19.218519   17.855276   20.815433 H          1 MOL1         0.0832
       6    H4      18.768125   17.836443   22.498328 H          1 MOL1         0.0832
       7    C3      18.847950   19.824747   21.610121 C.3        1 MOL1        -0.1685
       8    H5      17.843009   19.776220   21.169139 H          1 MOL1         0.0832
       9    H6      19.449237   20.363261   20.867137 H          1 MOL1         0.0832
      10    C4      18.754071   20.662268   22.915715 C.3        1 MOL1        -0.1761
      11    H7      18.753771   21.725203   22.642016 H          1 MOL1         0.0832
      12    H8      17.772965   20.480613   23.374438 H          1 MOL1         0.0832
      13    C5      19.828451   20.437848   24.008190 C.3        1 MOL1         0.1218
      14    H9      19.727313   21.261375   24.729542 H          1 MOL1         0.0789
      15    C6      21.301525   20.436624   23.530491 C.3        1 MOL1        -0.1761
      16    H10     21.602401   21.472910   23.329678 H          1 MOL1         0.0832
      17    H11     21.923123   20.112772   24.375910 H          1 MOL1         0.0832
      18    C7      21.671094   19.574930   22.291257 C.3        1 MOL1        -0.1685
      19    H12     21.569893   20.175752   21.378931 H          1 MOL1         0.0832
      20    H13     22.743088   19.342638   22.351213 H          1 MOL1         0.0832
      21    O1      19.553336   19.233575   24.706246 O.3        1 MOL1        -0.5509
      22    H14     19.655819   18.537623   24.026481 H          1 MOL1         0.3779
@<TRIPOS>BOND
    1     1     2    1
    2     1     3    1
    3     1     4    1
    4     4     5    1
    5     4     6    1
    6     4     7    1
    7     7     8    1
    8     7     9    1
    9     7    10    1
   10    10    11    1
   11    10    12    1
   12    10    13    1
   13    13    14    1
   14    13    15    1
   15    15    16    1
   16    15    17    1
   17     1    18    1
   18    15    18    1
   19    18    19    1
   20    18    20    1
   21    13    21    1
   22    21    22    1
@<TRIPOS>SUBSTRUCTURE
       1 MOL1            1 RESIDUE      1      MOL     
@<SCITEGIC>MOL_PROPERTY
VConf Rank
SciTegic.value.IntegerValue
208

@<SCITEGIC>MOL_PROPERTY
Conf_Id
SciTegic.value.IntegerValue
98

@<SCITEGIC>MOL_PROPERTY
Delta U+W
SciTegic.value.DoubleValue
0.930

@<SCITEGIC>MOL_PROPERTY
U+W
SciTegic.value.DoubleValue
7.353

@<SCITEGIC>MOL_PROPERTY
Grad RMS
SciTegic.value.DoubleValue
0.000000

@<SCITEGIC>MOL_PROPERTY
U
SciTegic.value.DoubleValue
8.455

@<SCITEGIC>MOL_PROPERTY
W
SciTegic.value.DoubleValue
-1.102

@<SCITEGIC>MOL_PROPERTY
W(PB)
SciTegic.value.DoubleValue
-3.101

@<SCITEGIC>MOL_PROPERTY
W(SA)
SciTegic.value.DoubleValue
2.000

@<SCITEGIC>MOL_PROPERTY
Valence
SciTegic.value.DoubleValue
15.601

@<SCITEGIC>MOL_PROPERTY
Coulomb
SciTegic.value.DoubleValue
-10.573

@<SCITEGIC>MOL_PROPERTY
VdW
SciTegic.value.DoubleValue
3.427

@<SCITEGIC>MOL_PROPERTY
VdW6
SciTegic.value.DoubleValue
-11.360

@<SCITEGIC>MOL_PROPERTY
VdW12
SciTegic.value.DoubleValue
14.787

@<SCITEGIC>MOL_PROPERTY
Bond
SciTegic.value.DoubleValue
0.471

@<SCITEGIC>MOL_PROPERTY
Angle
SciTegic.value.DoubleValue
5.445

@<SCITEGIC>MOL_PROPERTY
Pdih
SciTegic.value.DoubleValue
9.685

@<SCITEGIC>MOL_PROPERTY
Idih
SciTegic.value.DoubleValue
0.000

@<SCITEGIC>MOL_PROPERTY
Tether
SciTegic.value.DoubleValue
0.000

@<TRIPOS>MOLECULE
guest-5_confgen4.mol2 : confsearch ligand conformer 209
          22          22           1
SMALL
USER_CHARGES
 
@<TRIPOS>ATOM
       1    C1      20.267964   19.960841   24.300764 C.3        1 MOL1        -0.1685
       2    H1      20.356781   21.001449   23.963086 H          1 MOL1         0.0832
       3    H2      20.350349   20.008196   25.395151 H          1 MOL1         0.0832
       4    C2      21.455061   19.128913   23.752260 C.3        1 MOL1        -0.1685
       5    H3      22.380806   19.588100   24.125112 H          1 MOL1         0.0832
       6    H4      21.428150   18.119849   24.185492 H          1 MOL1         0.0832
       7    C3      21.559234   19.018003   22.205815 C.3        1 MOL1        -0.1685
       8    H5      21.210880   18.030986   21.874962 H          1 MOL1         0.0832
       9    H6      22.622327   19.049260   21.931059 H          1 MOL1         0.0832
      10    C4      20.808984   20.122842   21.415774 C.3        1 MOL1        -0.1761
      11    H7      21.113970   21.106265   21.794572 H          1 MOL1         0.0832
      12    H8      21.159322   20.100913   20.375019 H          1 MOL1         0.0832
      13    C5      19.254893   20.030328   21.426457 C.3        1 MOL1         0.1218
      14    H9      18.857121   21.034523   21.632459 H          1 MOL1         0.0789
      15    C6      18.642239   19.047561   22.455574 C.3        1 MOL1        -0.1761
      16    H10     17.560164   18.981109   22.283073 H          1 MOL1         0.0832
      17    H11     19.022944   18.035728   22.271603 H          1 MOL1         0.0832
      18    C7      18.863678   19.419972   23.942881 C.3        1 MOL1        -0.1685
      19    H12     18.121942   20.176138   24.234179 H          1 MOL1         0.0832
      20    H13     18.650343   18.535740   24.558749 H          1 MOL1         0.0832
      21    O1      18.818907   19.621715   20.134897 O.3        1 MOL1        -0.5509
      22    H14     17.839193   19.627369   20.152400 H          1 MOL1         0.3779
@<TRIPOS>BOND
    1     1     2    1
    2     1     3    1
    3     1     4    1
    4     4     5    1
    5     4     6    1
    6     4     7    1
    7     7     8    1
    8     7     9    1
    9     7    10    1
   10    10    11    1
   11    10    12    1
   12    10    13    1
   13    13    14    1
   14    13    15    1
   15    15    16    1
   16    15    17    1
   17     1    18    1
   18    15    18    1
   19    18    19    1
   20    18    20    1
   21    13    21    1
   22    21    22    1
@<TRIPOS>SUBSTRUCTURE
       1 MOL1            1 RESIDUE      1      MOL     
@<SCITEGIC>MOL_PROPERTY
VConf Rank
SciTegic.value.IntegerValue
209

@<SCITEGIC>MOL_PROPERTY
Conf_Id
SciTegic.value.IntegerValue
141

@<SCITEGIC>MOL_PROPERTY
Delta U+W
SciTegic.value.DoubleValue
0.000

@<SCITEGIC>MOL_PROPERTY
U+W
SciTegic.value.DoubleValue
6.423

@<SCITEGIC>MOL_PROPERTY
Grad RMS
SciTegic.value.DoubleValue
0.000000

@<SCITEGIC>MOL_PROPERTY
U
SciTegic.value.DoubleValue
8.781

@<SCITEGIC>MOL_PROPERTY
W
SciTegic.value.DoubleValue
-2.358

@<SCITEGIC>MOL_PROPERTY
W(PB)
SciTegic.value.DoubleValue
-4.373

@<SCITEGIC>MOL_PROPERTY
W(SA)
SciTegic.value.DoubleValue
2.015

@<SCITEGIC>MOL_PROPERTY
Valence
SciTegic.value.DoubleValue
13.328

@<SCITEGIC>MOL_PROPERTY
Coulomb
SciTegic.value.DoubleValue
-8.387

@<SCITEGIC>MOL_PROPERTY
VdW
SciTegic.value.DoubleValue
3.840

@<SCITEGIC>MOL_PROPERTY
VdW6
SciTegic.value.DoubleValue
-9.744

@<SCITEGIC>MOL_PROPERTY
VdW12
SciTegic.value.DoubleValue
13.584

@<SCITEGIC>MOL_PROPERTY
Bond
SciTegic.value.DoubleValue
0.436

@<SCITEGIC>MOL_PROPERTY
Angle
SciTegic.value.DoubleValue
3.478

@<SCITEGIC>MOL_PROPERTY
Pdih
SciTegic.value.DoubleValue
9.415

@<SCITEGIC>MOL_PROPERTY
Idih
SciTegic.value.DoubleValue
0.000

@<SCITEGIC>MOL_PROPERTY
Tether
SciTegic.value.DoubleValue
0.000

@<TRIPOS>MOLECULE
guest-5_confgen4.mol2 : confsearch ligand conformer 210
          22          22           1
SMALL
USER_CHARGES
 
@<TRIPOS>ATOM
       1    C1      21.184528   20.136125   21.500020 C.3        1 MOL1        -0.1685
       2    H1      21.843441   19.331048   21.852571 H          1 MOL1         0.0832
       3    H2      21.718249   20.625462   20.673827 H          1 MOL1         0.0832
       4    C2      20.962086   21.194302   22.607465 C.3        1 MOL1        -0.1685
       5    H3      21.907762   21.726850   22.777597 H          1 MOL1         0.0832
       6    H4      20.252785   21.952836   22.249139 H          1 MOL1         0.0832
       7    C3      20.472212   20.636423   23.963609 C.3        1 MOL1        -0.1685
       8    H5      20.288778   21.484969   24.636772 H          1 MOL1         0.0832
       9    H6      21.277378   20.052513   24.430212 H          1 MOL1         0.0832
      10    C4      19.186873   19.776289   23.891142 C.3        1 MOL1        -0.1761
      11    H7      18.820066   19.640501   24.917056 H          1 MOL1         0.0832
      12    H8      18.393810   20.309818   23.351332 H          1 MOL1         0.0832
      13    C5      19.432882   18.388195   23.258449 C.3        1 MOL1         0.1218
      14    H9      20.451047   18.066221   23.520207 H          1 MOL1         0.0789
      15    C6      19.292829   18.350192   21.719541 C.3        1 MOL1        -0.1761
      16    H10     19.790205   17.438529   21.364102 H          1 MOL1         0.0832
      17    H11     18.233190   18.237777   21.453764 H          1 MOL1         0.0832
      18    C7      19.861365   19.562838   20.940888 C.3        1 MOL1        -0.1685
      19    H12     20.018854   19.253373   19.898654 H          1 MOL1         0.0832
      20    H13     19.106514   20.359853   20.899945 H          1 MOL1         0.0832
      21    O1      18.503567   17.462486   23.808589 O.3        1 MOL1        -0.5509
      22    H14     18.660638   17.445908   24.775891 H          1 MOL1         0.3779
@<TRIPOS>BOND
    1     1     2    1
    2     1     3    1
    3     1     4    1
    4     4     5    1
    5     4     6    1
    6     4     7    1
    7     7     8    1
    8     7     9    1
    9     7    10    1
   10    10    11    1
   11    10    12    1
   12    10    13    1
   13    13    14    1
   14    13    15    1
   15    15    16    1
   16    15    17    1
   17     1    18    1
   18    15    18    1
   19    18    19    1
   20    18    20    1
   21    13    21    1
   22    21    22    1
@<TRIPOS>SUBSTRUCTURE
       1 MOL1            1 RESIDUE      1      MOL     
@<SCITEGIC>MOL_PROPERTY
VConf Rank
SciTegic.value.IntegerValue
210

@<SCITEGIC>MOL_PROPERTY
Conf_Id
SciTegic.value.IntegerValue
144

@<SCITEGIC>MOL_PROPERTY
Delta U+W
SciTegic.value.DoubleValue
-3.291

@<SCITEGIC>MOL_PROPERTY
U+W
SciTegic.value.DoubleValue
3.132

@<SCITEGIC>MOL_PROPERTY
Grad RMS
SciTegic.value.DoubleValue
0.000000

@<SCITEGIC>MOL_PROPERTY
U
SciTegic.value.DoubleValue
5.411

@<SCITEGIC>MOL_PROPERTY
W
SciTegic.value.DoubleValue
-2.279

@<SCITEGIC>MOL_PROPERTY
W(PB)
SciTegic.value.DoubleValue
-4.300

@<SCITEGIC>MOL_PROPERTY
W(SA)
SciTegic.value.DoubleValue
2.021

@<SCITEGIC>MOL_PROPERTY
Valence
SciTegic.value.DoubleValue
11.909

@<SCITEGIC>MOL_PROPERTY
Coulomb
SciTegic.value.DoubleValue
-8.733

@<SCITEGIC>MOL_PROPERTY
VdW
SciTegic.value.DoubleValue
2.236

@<SCITEGIC>MOL_PROPERTY
VdW6
SciTegic.value.DoubleValue
-8.936

@<SCITEGIC>MOL_PROPERTY
VdW12
SciTegic.value.DoubleValue
11.172

@<SCITEGIC>MOL_PROPERTY
Bond
SciTegic.value.DoubleValue
0.223

@<SCITEGIC>MOL_PROPERTY
Angle
SciTegic.value.DoubleValue
2.457

@<SCITEGIC>MOL_PROPERTY
Pdih
SciTegic.value.DoubleValue
9.228

@<SCITEGIC>MOL_PROPERTY
Idih
SciTegic.value.DoubleValue
0.000

@<SCITEGIC>MOL_PROPERTY
Tether
SciTegic.value.DoubleValue
0.000

@<TRIPOS>MOLECULE
guest-5_confgen4.mol2 : confsearch ligand conformer 211
          22          22           1
SMALL
USER_CHARGES
 
@<TRIPOS>ATOM
       1    C1      19.860522   18.308837   21.449632 C.3        1 MOL1        -0.1685
       2    H1      19.649178   17.723320   20.544428 H          1 MOL1         0.0832
       3    H2      20.484461   17.667946   22.087315 H          1 MOL1         0.0832
       4    C2      18.513029   18.627275   22.138787 C.3        1 MOL1        -0.1685
       5    H3      18.055062   19.503036   21.659117 H          1 MOL1         0.0832
       6    H4      17.816600   17.796982   21.958235 H          1 MOL1         0.0832
       7    C3      18.595552   18.856231   23.667411 C.3        1 MOL1        -0.1685
       8    H5      18.574343   17.882812   24.176255 H          1 MOL1         0.0832
       9    H6      17.682722   19.378602   23.985038 H          1 MOL1         0.0832
      10    C4      19.828986   19.640689   24.178688 C.3        1 MOL1        -0.1761
      11    H7      19.597701   20.010196   25.186876 H          1 MOL1         0.0832
      12    H8      20.671301   18.947672   24.301685 H          1 MOL1         0.0832
      13    C5      20.266139   20.822370   23.284192 C.3        1 MOL1         0.1218
      14    H9      19.380139   21.285935   22.827487 H          1 MOL1         0.0789
      15    C6      21.255622   20.393100   22.177111 C.3        1 MOL1        -0.1761
      16    H10     21.716773   21.293323   21.749245 H          1 MOL1         0.0832
      17    H11     22.075523   19.814890   22.622670 H          1 MOL1         0.0832
      18    C7      20.632207   19.579106   21.018456 C.3        1 MOL1        -0.1685
      19    H12     19.967080   20.229112   20.433629 H          1 MOL1         0.0832
      20    H13     21.438984   19.283355   20.334037 H          1 MOL1         0.0832
      21    O1      20.917619   21.784886   24.102328 O.3        1 MOL1        -0.5509
      22    H14     21.696531   21.335952   24.490804 H          1 MOL1         0.3779
@<TRIPOS>BOND
    1     1     2    1
    2     1     3    1
    3     1     4    1
    4     4     5    1
    5     4     6    1
    6     4     7    1
    7     7     8    1
    8     7     9    1
    9     7    10    1
   10    10    11    1
   11    10    12    1
   12    10    13    1
   13    13    14    1
   14    13    15    1
   15    15    16    1
   16    15    17    1
   17     1    18    1
   18    15    18    1
   19    18    19    1
   20    18    20    1
   21    13    21    1
   22    21    22    1
@<TRIPOS>SUBSTRUCTURE
       1 MOL1            1 RESIDUE      1      MOL     
@<SCITEGIC>MOL_PROPERTY
VConf Rank
SciTegic.value.IntegerValue
211

@<SCITEGIC>MOL_PROPERTY
Conf_Id
SciTegic.value.IntegerValue
76

@<SCITEGIC>MOL_PROPERTY
Delta U+W
SciTegic.value.DoubleValue
-3.175

@<SCITEGIC>MOL_PROPERTY
U+W
SciTegic.value.DoubleValue
3.248

@<SCITEGIC>MOL_PROPERTY
Grad RMS
SciTegic.value.DoubleValue
0.000000

@<SCITEGIC>MOL_PROPERTY
U
SciTegic.value.DoubleValue
5.336

@<SCITEGIC>MOL_PROPERTY
W
SciTegic.value.DoubleValue
-2.088

@<SCITEGIC>MOL_PROPERTY
W(PB)
SciTegic.value.DoubleValue
-4.098

@<SCITEGIC>MOL_PROPERTY
W(SA)
SciTegic.value.DoubleValue
2.010

@<SCITEGIC>MOL_PROPERTY
Valence
SciTegic.value.DoubleValue
12.390

@<SCITEGIC>MOL_PROPERTY
Coulomb
SciTegic.value.DoubleValue
-9.270

@<SCITEGIC>MOL_PROPERTY
VdW
SciTegic.value.DoubleValue
2.216

@<SCITEGIC>MOL_PROPERTY
VdW6
SciTegic.value.DoubleValue
-8.967

@<SCITEGIC>MOL_PROPERTY
VdW12
SciTegic.value.DoubleValue
11.183

@<SCITEGIC>MOL_PROPERTY
Bond
SciTegic.value.DoubleValue
0.218

@<SCITEGIC>MOL_PROPERTY
Angle
SciTegic.value.DoubleValue
2.426

@<SCITEGIC>MOL_PROPERTY
Pdih
SciTegic.value.DoubleValue
9.745

@<SCITEGIC>MOL_PROPERTY
Idih
SciTegic.value.DoubleValue
0.000

@<SCITEGIC>MOL_PROPERTY
Tether
SciTegic.value.DoubleValue
0.000

@<TRIPOS>MOLECULE
guest-5_confgen4.mol2 : confsearch ligand conformer 212
          22          22           1
SMALL
USER_CHARGES
 
@<TRIPOS>ATOM
       1    C1      18.903085   18.094654   22.822702 C.3        1 MOL1        -0.1685
       2    H1      18.140508   17.921773   23.594304 H          1 MOL1         0.0832
       3    H2      18.786970   17.275475   22.100014 H          1 MOL1         0.0832
       4    C2      20.296710   17.984185   23.486239 C.3        1 MOL1        -0.1685
       5    H3      20.253850   18.402649   24.500897 H          1 MOL1         0.0832
       6    H4      20.526369   16.918017   23.617869 H          1 MOL1         0.0832
       7    C3      21.449614   18.653166   22.702136 C.3        1 MOL1        -0.1685
       8    H5      21.317574   18.521686   21.619493 H          1 MOL1         0.0832
       9    H6      22.383136   18.135306   22.960301 H          1 MOL1         0.0832
      10    C4      21.627118   20.151191   23.057794 C.3        1 MOL1        -0.1761
      11    H7      21.684159   20.258723   24.148526 H          1 MOL1         0.0832
      12    H8      22.600063   20.488639   22.677108 H          1 MOL1         0.0832
      13    C5      20.544833   21.114091   22.518739 C.3        1 MOL1         0.1218
      14    H9      20.714601   22.085790   23.004618 H          1 MOL1         0.0789
      15    C6      19.083317   20.700722   22.824654 C.3        1 MOL1        -0.1761
      16    H10     18.947414   20.588599   23.908092 H          1 MOL1         0.0832
      17    H11     18.434565   21.535631   22.529976 H          1 MOL1         0.0832
      18    C7      18.592854   19.423813   22.093787 C.3        1 MOL1        -0.1685
      19    H12     17.504577   19.488887   21.960215 H          1 MOL1         0.0832
      20    H13     19.008585   19.387797   21.078252 H          1 MOL1         0.0832
      21    O1      20.722568   21.282649   21.115877 O.3        1 MOL1        -0.5509
      22    H14     19.989750   21.854367   20.808631 H          1 MOL1         0.3779
@<TRIPOS>BOND
    1     1     2    1
    2     1     3    1
    3     1     4    1
    4     4     5    1
    5     4     6    1
    6     4     7    1
    7     7     8    1
    8     7     9    1
    9     7    10    1
   10    10    11    1
   11    10    12    1
   12    10    13    1
   13    13    14    1
   14    13    15    1
   15    15    16    1
   16    15    17    1
   17     1    18    1
   18    15    18    1
   19    18    19    1
   20    18    20    1
   21    13    21    1
   22    21    22    1
@<TRIPOS>SUBSTRUCTURE
       1 MOL1            1 RESIDUE      1      MOL     
@<SCITEGIC>MOL_PROPERTY
VConf Rank
SciTegic.value.IntegerValue
212

@<SCITEGIC>MOL_PROPERTY
Conf_Id
SciTegic.value.IntegerValue
95

@<SCITEGIC>MOL_PROPERTY
Delta U+W
SciTegic.value.DoubleValue
-2.289

@<SCITEGIC>MOL_PROPERTY
U+W
SciTegic.value.DoubleValue
4.134

@<SCITEGIC>MOL_PROPERTY
Grad RMS
SciTegic.value.DoubleValue
0.000000

@<SCITEGIC>MOL_PROPERTY
U
SciTegic.value.DoubleValue
6.373

@<SCITEGIC>MOL_PROPERTY
W
SciTegic.value.DoubleValue
-2.240

@<SCITEGIC>MOL_PROPERTY
W(PB)
SciTegic.value.DoubleValue
-4.254

@<SCITEGIC>MOL_PROPERTY
W(SA)
SciTegic.value.DoubleValue
2.015

@<SCITEGIC>MOL_PROPERTY
Valence
SciTegic.value.DoubleValue
12.093

@<SCITEGIC>MOL_PROPERTY
Coulomb
SciTegic.value.DoubleValue
-8.058

@<SCITEGIC>MOL_PROPERTY
VdW
SciTegic.value.DoubleValue
2.339

@<SCITEGIC>MOL_PROPERTY
VdW6
SciTegic.value.DoubleValue
-9.683

@<SCITEGIC>MOL_PROPERTY
VdW12
SciTegic.value.DoubleValue
12.022

@<SCITEGIC>MOL_PROPERTY
Bond
SciTegic.value.DoubleValue
0.268

@<SCITEGIC>MOL_PROPERTY
Angle
SciTegic.value.DoubleValue
3.005

@<SCITEGIC>MOL_PROPERTY
Pdih
SciTegic.value.DoubleValue
8.820

@<SCITEGIC>MOL_PROPERTY
Idih
SciTegic.value.DoubleValue
0.000

@<SCITEGIC>MOL_PROPERTY
Tether
SciTegic.value.DoubleValue
0.000

@<TRIPOS>MOLECULE
guest-5_confgen4.mol2 : confsearch ligand conformer 213
          22          22           1
SMALL
USER_CHARGES
 
@<TRIPOS>ATOM
       1    C1      21.830452   19.072198   22.312883 C.3        1 MOL1        -0.1685
       2    H1      22.755784   19.350840   22.835256 H          1 MOL1         0.0832
       3    H2      22.132702   18.365810   21.527740 H          1 MOL1         0.0832
       4    C2      21.249193   20.342385   21.647231 C.3        1 MOL1        -0.1685
       5    H3      21.429719   21.210483   22.295532 H          1 MOL1         0.0832
       6    H4      21.821781   20.537124   20.730160 H          1 MOL1         0.0832
       7    C3      19.745503   20.267505   21.293921 C.3        1 MOL1        -0.1685
       8    H5      19.473795   19.262896   20.942133 H          1 MOL1         0.0832
       9    H6      19.559892   20.946435   20.450695 H          1 MOL1         0.0832
      10    C4      18.833572   20.709970   22.466062 C.3        1 MOL1        -0.1761
      11    H7      19.185202   21.676619   22.849261 H          1 MOL1         0.0832
      12    H8      17.826256   20.901409   22.074083 H          1 MOL1         0.0832
      13    C5      18.716155   19.722086   23.649293 C.3        1 MOL1         0.1218
      14    H9      18.188294   20.252687   24.454853 H          1 MOL1         0.0789
      15    C6      20.064867   19.233761   24.234824 C.3        1 MOL1        -0.1761
      16    H10     20.665257   20.093079   24.559776 H          1 MOL1         0.0832
      17    H11     19.836187   18.666056   25.146002 H          1 MOL1         0.0832
      18    C7      20.900131   18.323644   23.297028 C.3        1 MOL1        -0.1685
      19    H12     21.523305   17.660840   23.912303 H          1 MOL1         0.0832
      20    H13     20.234187   17.655684   22.734919 H          1 MOL1         0.0832
      21    O1      17.920821   18.607514   23.256781 O.3        1 MOL1        -0.5509
      22    H14     17.093281   18.970792   22.880758 H          1 MOL1         0.3779
@<TRIPOS>BOND
    1     1     2    1
    2     1     3    1
    3     1     4    1
    4     4     5    1
    5     4     6    1
    6     4     7    1
    7     7     8    1
    8     7     9    1
    9     7    10    1
   10    10    11    1
   11    10    12    1
   12    10    13    1
   13    13    14    1
   14    13    15    1
   15    15    16    1
   16    15    17    1
   17     1    18    1
   18    15    18    1
   19    18    19    1
   20    18    20    1
   21    13    21    1
   22    21    22    1
@<TRIPOS>SUBSTRUCTURE
       1 MOL1            1 RESIDUE      1      MOL     
@<SCITEGIC>MOL_PROPERTY
VConf Rank
SciTegic.value.IntegerValue
213

@<SCITEGIC>MOL_PROPERTY
Conf_Id
SciTegic.value.IntegerValue
41

@<SCITEGIC>MOL_PROPERTY
Delta U+W
SciTegic.value.DoubleValue
-2.114

@<SCITEGIC>MOL_PROPERTY
U+W
SciTegic.value.DoubleValue
4.310

@<SCITEGIC>MOL_PROPERTY
Grad RMS
SciTegic.value.DoubleValue
0.000000

@<SCITEGIC>MOL_PROPERTY
U
SciTegic.value.DoubleValue
6.598

@<SCITEGIC>MOL_PROPERTY
W
SciTegic.value.DoubleValue
-2.289

@<SCITEGIC>MOL_PROPERTY
W(PB)
SciTegic.value.DoubleValue
-4.294

@<SCITEGIC>MOL_PROPERTY
W(SA)
SciTegic.value.DoubleValue
2.005

@<SCITEGIC>MOL_PROPERTY
Valence
SciTegic.value.DoubleValue
12.082

@<SCITEGIC>MOL_PROPERTY
Coulomb
SciTegic.value.DoubleValue
-7.801

@<SCITEGIC>MOL_PROPERTY
VdW
SciTegic.value.DoubleValue
2.317

@<SCITEGIC>MOL_PROPERTY
VdW6
SciTegic.value.DoubleValue
-9.658

@<SCITEGIC>MOL_PROPERTY
VdW12
SciTegic.value.DoubleValue
11.975

@<SCITEGIC>MOL_PROPERTY
Bond
SciTegic.value.DoubleValue
0.267

@<SCITEGIC>MOL_PROPERTY
Angle
SciTegic.value.DoubleValue
3.051

@<SCITEGIC>MOL_PROPERTY
Pdih
SciTegic.value.DoubleValue
8.764

@<SCITEGIC>MOL_PROPERTY
Idih
SciTegic.value.DoubleValue
0.000

@<SCITEGIC>MOL_PROPERTY
Tether
SciTegic.value.DoubleValue
0.000

@<TRIPOS>MOLECULE
guest-5_confgen4.mol2 : confsearch ligand conformer 214
          22          22           1
SMALL
USER_CHARGES
 
@<TRIPOS>ATOM
       1    C1      19.897602   19.659052   21.063921 C.3        1 MOL1        -0.1685
       2    H1      19.522075   19.695256   20.032311 H          1 MOL1         0.0832
       3    H2      20.874228   20.162321   21.054009 H          1 MOL1         0.0832
       4    C2      20.052319   18.173604   21.460020 C.3        1 MOL1        -0.1685
       5    H3      19.060815   17.705285   21.524662 H          1 MOL1         0.0832
       6    H4      20.581242   17.648645   20.653039 H          1 MOL1         0.0832
       7    C3      20.821773   17.935000   22.777681 C.3        1 MOL1        -0.1685
       8    H5      21.875636   18.211555   22.640643 H          1 MOL1         0.0832
       9    H6      20.824816   16.854979   22.976857 H          1 MOL1         0.0832
      10    C4      20.240111   18.659373   24.021924 C.3        1 MOL1        -0.1761
      11    H7      19.167876   18.445296   24.115417 H          1 MOL1         0.0832
      12    H8      20.708737   18.219391   24.911524 H          1 MOL1         0.0832
      13    C5      20.478968   20.189853   24.089823 C.3        1 MOL1         0.1218
      14    H9      20.307217   20.489762   25.133774 H          1 MOL1         0.0789
      15    C6      19.528568   21.062014   23.228885 C.3        1 MOL1        -0.1761
      16    H10     18.705312   21.401029   23.871053 H          1 MOL1         0.0832
      17    H11     20.055947   21.977274   22.929480 H          1 MOL1         0.0832
      18    C7      18.900907   20.417176   21.968280 C.3        1 MOL1        -0.1685
      19    H12     18.080845   19.747588   22.260791 H          1 MOL1         0.0832
      20    H13     18.431727   21.217530   21.380079 H          1 MOL1         0.0832
      21    O1      21.833302   20.497516   23.770382 O.3        1 MOL1        -0.5509
      22    H14     21.933865   21.466132   23.868254 H          1 MOL1         0.3779
@<TRIPOS>BOND
    1     1     2    1
    2     1     3    1
    3     1     4    1
    4     4     5    1
    5     4     6    1
    6     4     7    1
    7     7     8    1
    8     7     9    1
    9     7    10    1
   10    10    11    1
   11    10    12    1
   12    10    13    1
   13    13    14    1
   14    13    15    1
   15    15    16    1
   16    15    17    1
   17     1    18    1
   18    15    18    1
   19    18    19    1
   20    18    20    1
   21    13    21    1
   22    21    22    1
@<TRIPOS>SUBSTRUCTURE
       1 MOL1            1 RESIDUE      1      MOL     
@<SCITEGIC>MOL_PROPERTY
VConf Rank
SciTegic.value.IntegerValue
214

@<SCITEGIC>MOL_PROPERTY
Conf_Id
SciTegic.value.IntegerValue
104

@<SCITEGIC>MOL_PROPERTY
Delta U+W
SciTegic.value.DoubleValue
-1.172

@<SCITEGIC>MOL_PROPERTY
U+W
SciTegic.value.DoubleValue
5.252

@<SCITEGIC>MOL_PROPERTY
Grad RMS
SciTegic.value.DoubleValue
0.000000

@<SCITEGIC>MOL_PROPERTY
U
SciTegic.value.DoubleValue
7.482

@<SCITEGIC>MOL_PROPERTY
W
SciTegic.value.DoubleValue
-2.230

@<SCITEGIC>MOL_PROPERTY
W(PB)
SciTegic.value.DoubleValue
-4.220

@<SCITEGIC>MOL_PROPERTY
W(SA)
SciTegic.value.DoubleValue
1.990

@<SCITEGIC>MOL_PROPERTY
Valence
SciTegic.value.DoubleValue
12.309

@<SCITEGIC>MOL_PROPERTY
Coulomb
SciTegic.value.DoubleValue
-7.084

@<SCITEGIC>MOL_PROPERTY
VdW
SciTegic.value.DoubleValue
2.258

@<SCITEGIC>MOL_PROPERTY
VdW6
SciTegic.value.DoubleValue
-9.770

@<SCITEGIC>MOL_PROPERTY
VdW12
SciTegic.value.DoubleValue
12.028

@<SCITEGIC>MOL_PROPERTY
Bond
SciTegic.value.DoubleValue
0.284

@<SCITEGIC>MOL_PROPERTY
Angle
SciTegic.value.DoubleValue
3.491

@<SCITEGIC>MOL_PROPERTY
Pdih
SciTegic.value.DoubleValue
8.535

@<SCITEGIC>MOL_PROPERTY
Idih
SciTegic.value.DoubleValue
0.000

@<SCITEGIC>MOL_PROPERTY
Tether
SciTegic.value.DoubleValue
0.000

@<TRIPOS>MOLECULE
guest-5_confgen4.mol2 : confsearch ligand conformer 215
          22          22           1
SMALL
USER_CHARGES
 
@<TRIPOS>ATOM
       1    C1      21.682191   19.866585   22.574568 C.3        1 MOL1        -0.1685
       2    H1      21.812161   19.195459   21.714812 H          1 MOL1         0.0832
       3    H2      22.684180   20.248003   22.814313 H          1 MOL1         0.0832
       4    C2      21.164215   19.090870   23.807229 C.3        1 MOL1        -0.1685
       5    H3      22.010903   18.568517   24.273615 H          1 MOL1         0.0832
       6    H4      20.817678   19.804148   24.566494 H          1 MOL1         0.0832
       7    C3      20.059908   18.040972   23.524572 C.3        1 MOL1        -0.1685
       8    H5      19.474249   17.896382   24.442946 H          1 MOL1         0.0832
       9    H6      20.542159   17.072941   23.331495 H          1 MOL1         0.0832
      10    C4      19.093062   18.325625   22.343308 C.3        1 MOL1        -0.1761
      11    H7      19.593921   18.070976   21.400308 H          1 MOL1         0.0832
      12    H8      18.250252   17.626410   22.419280 H          1 MOL1         0.0832
      13    C5      18.520851   19.757358   22.230631 C.3        1 MOL1         0.1218
      14    H9      17.598810   19.695034   21.634950 H          1 MOL1         0.0789
      15    C6      19.468425   20.725646   21.487133 C.3        1 MOL1        -0.1761
      16    H10     19.697504   20.304348   20.499665 H          1 MOL1         0.0832
      17    H11     18.921069   21.656923   21.291254 H          1 MOL1         0.0832
      18    C7      20.796041   21.079063   22.202203 C.3        1 MOL1        -0.1685
      19    H12     21.372240   21.735680   21.536201 H          1 MOL1         0.0832
      20    H13     20.587993   21.678004   23.099122 H          1 MOL1         0.0832
      21    O1      18.206106   20.271096   23.515612 O.3        1 MOL1        -0.5509
      22    H14     19.049790   20.217480   24.007148 H          1 MOL1         0.3779
@<TRIPOS>BOND
    1     1     2    1
    2     1     3    1
    3     1     4    1
    4     4     5    1
    5     4     6    1
    6     4     7    1
    7     7     8    1
    8     7     9    1
    9     7    10    1
   10    10    11    1
   11    10    12    1
   12    10    13    1
   13    13    14    1
   14    13    15    1
   15    15    16    1
   16    15    17    1
   17     1    18    1
   18    15    18    1
   19    18    19    1
   20    18    20    1
   21    13    21    1
   22    21    22    1
@<TRIPOS>SUBSTRUCTURE
       1 MOL1            1 RESIDUE      1      MOL     
@<SCITEGIC>MOL_PROPERTY
VConf Rank
SciTegic.value.IntegerValue
215

@<SCITEGIC>MOL_PROPERTY
Conf_Id
SciTegic.value.IntegerValue
99

@<SCITEGIC>MOL_PROPERTY
Delta U+W
SciTegic.value.DoubleValue
-3.852

@<SCITEGIC>MOL_PROPERTY
U+W
SciTegic.value.DoubleValue
2.572

@<SCITEGIC>MOL_PROPERTY
Grad RMS
SciTegic.value.DoubleValue
0.000000

@<SCITEGIC>MOL_PROPERTY
U
SciTegic.value.DoubleValue
3.922

@<SCITEGIC>MOL_PROPERTY
W
SciTegic.value.DoubleValue
-1.350

@<SCITEGIC>MOL_PROPERTY
W(PB)
SciTegic.value.DoubleValue
-3.345

@<SCITEGIC>MOL_PROPERTY
W(SA)
SciTegic.value.DoubleValue
1.995

@<SCITEGIC>MOL_PROPERTY
Valence
SciTegic.value.DoubleValue
12.571

@<SCITEGIC>MOL_PROPERTY
Coulomb
SciTegic.value.DoubleValue
-10.581

@<SCITEGIC>MOL_PROPERTY
VdW
SciTegic.value.DoubleValue
1.932

@<SCITEGIC>MOL_PROPERTY
VdW6
SciTegic.value.DoubleValue
-10.483

@<SCITEGIC>MOL_PROPERTY
VdW12
SciTegic.value.DoubleValue
12.415

@<SCITEGIC>MOL_PROPERTY
Bond
SciTegic.value.DoubleValue
0.268

@<SCITEGIC>MOL_PROPERTY
Angle
SciTegic.value.DoubleValue
3.728

@<SCITEGIC>MOL_PROPERTY
Pdih
SciTegic.value.DoubleValue
8.575

@<SCITEGIC>MOL_PROPERTY
Idih
SciTegic.value.DoubleValue
0.000

@<SCITEGIC>MOL_PROPERTY
Tether
SciTegic.value.DoubleValue
0.000

@<TRIPOS>MOLECULE
guest-5_confgen4.mol2 : confsearch ligand conformer 216
          22          22           1
SMALL
USER_CHARGES
 
@<TRIPOS>ATOM
       1    C1      21.481847   19.174190   21.886493 C.3        1 MOL1        -0.1685
       2    H1      22.445106   19.429014   21.423365 H          1 MOL1         0.0832
       3    H2      21.406057   18.082062   21.799506 H          1 MOL1         0.0832
       4    C2      20.356826   19.857882   21.055383 C.3        1 MOL1        -0.1685
       5    H3      20.833131   20.408494   20.232430 H          1 MOL1         0.0832
       6    H4      19.734063   19.098105   20.564508 H          1 MOL1         0.0832
       7    C3      19.451364   20.851802   21.826753 C.3        1 MOL1        -0.1685
       8    H5      18.839553   21.400449   21.097782 H          1 MOL1         0.0832
       9    H6      20.069597   21.622651   22.303356 H          1 MOL1         0.0832
      10    C4      18.492048   20.225512   22.876660 C.3        1 MOL1        -0.1761
      11    H7      18.217619   21.005334   23.598677 H          1 MOL1         0.0832
      12    H8      17.554988   19.954647   22.372134 H          1 MOL1         0.0832
      13    C5      18.976529   18.980756   23.660254 C.3        1 MOL1         0.1218
      14    H9      18.272388   18.832667   24.491537 H          1 MOL1         0.0789
      15    C6      20.392591   19.070073   24.280685 C.3        1 MOL1        -0.1761
      16    H10     20.342757   19.713139   25.168786 H          1 MOL1         0.0832
      17    H11     20.651362   18.072223   24.659276 H          1 MOL1         0.0832
      18    C7      21.557571   19.571590   23.382853 C.3        1 MOL1        -0.1685
      19    H12     21.651595   20.660951   23.472412 H          1 MOL1         0.0832
      20    H13     22.495320   19.178553   23.798635 H          1 MOL1         0.0832
      21    O1      18.891918   17.833036   22.830302 O.3        1 MOL1        -0.5509
      22    H14     19.531644   18.012771   22.112403 H          1 MOL1         0.3779
@<TRIPOS>BOND
    1     1     2    1
    2     1     3    1
    3     1     4    1
    4     4     5    1
    5     4     6    1
    6     4     7    1
    7     7     8    1
    8     7     9    1
    9     7    10    1
   10    10    11    1
   11    10    12    1
   12    10    13    1
   13    13    14    1
   14    13    15    1
   15    15    16    1
   16    15    17    1
   17     1    18    1
   18    15    18    1
   19    18    19    1
   20    18    20    1
   21    13    21    1
   22    21    22    1
@<TRIPOS>SUBSTRUCTURE
       1 MOL1            1 RESIDUE      1      MOL     
@<SCITEGIC>MOL_PROPERTY
VConf Rank
SciTegic.value.IntegerValue
216

@<SCITEGIC>MOL_PROPERTY
Conf_Id
SciTegic.value.IntegerValue
98

@<SCITEGIC>MOL_PROPERTY
Delta U+W
SciTegic.value.DoubleValue
0.930

@<SCITEGIC>MOL_PROPERTY
U+W
SciTegic.value.DoubleValue
7.353

@<SCITEGIC>MOL_PROPERTY
Grad RMS
SciTegic.value.DoubleValue
0.000000

@<SCITEGIC>MOL_PROPERTY
U
SciTegic.value.DoubleValue
8.455

@<SCITEGIC>MOL_PROPERTY
W
SciTegic.value.DoubleValue
-1.102

@<SCITEGIC>MOL_PROPERTY
W(PB)
SciTegic.value.DoubleValue
-3.101

@<SCITEGIC>MOL_PROPERTY
W(SA)
SciTegic.value.DoubleValue
2.000

@<SCITEGIC>MOL_PROPERTY
Valence
SciTegic.value.DoubleValue
15.601

@<SCITEGIC>MOL_PROPERTY
Coulomb
SciTegic.value.DoubleValue
-10.573

@<SCITEGIC>MOL_PROPERTY
VdW
SciTegic.value.DoubleValue
3.427

@<SCITEGIC>MOL_PROPERTY
VdW6
SciTegic.value.DoubleValue
-11.360

@<SCITEGIC>MOL_PROPERTY
VdW12
SciTegic.value.DoubleValue
14.787

@<SCITEGIC>MOL_PROPERTY
Bond
SciTegic.value.DoubleValue
0.471

@<SCITEGIC>MOL_PROPERTY
Angle
SciTegic.value.DoubleValue
5.445

@<SCITEGIC>MOL_PROPERTY
Pdih
SciTegic.value.DoubleValue
9.685

@<SCITEGIC>MOL_PROPERTY
Idih
SciTegic.value.DoubleValue
0.000

@<SCITEGIC>MOL_PROPERTY
Tether
SciTegic.value.DoubleValue
0.000

@<TRIPOS>MOLECULE
guest-5_confgen4.mol2 : confsearch ligand conformer 217
          22          22           1
SMALL
USER_CHARGES
 
@<TRIPOS>ATOM
       1    C1      18.935642   19.874237   21.362034 C.3        1 MOL1        -0.1685
       2    H1      18.124944   19.849669   22.101592 H          1 MOL1         0.0832
       3    H2      18.449226   20.143489   20.414609 H          1 MOL1         0.0832
       4    C2      19.553628   18.460515   21.214928 C.3        1 MOL1        -0.1685
       5    H3      18.750963   17.779999   20.899488 H          1 MOL1         0.0832
       6    H4      20.282677   18.461589   20.393278 H          1 MOL1         0.0832
       7    C3      20.219087   17.866283   22.487209 C.3        1 MOL1        -0.1685
       8    H5      21.311745   17.935514   22.407704 H          1 MOL1         0.0832
       9    H6      20.005331   16.789151   22.514211 H          1 MOL1         0.0832
      10    C4      19.756894   18.498471   23.826771 C.3        1 MOL1        -0.1761
      11    H7      18.660830   18.484200   23.872213 H          1 MOL1         0.0832
      12    H8      20.081298   17.844044   24.647060 H          1 MOL1         0.0832
      13    C5      20.261396   19.944601   24.106157 C.3        1 MOL1         0.1218
      14    H9      19.406830   20.539061   24.460278 H          1 MOL1         0.0789
      15    C6      20.898464   20.683705   22.902775 C.3        1 MOL1        -0.1761
      16    H10     21.320926   21.634539   23.252772 H          1 MOL1         0.0832
      17    H11     21.755952   20.110877   22.529719 H          1 MOL1         0.0832
      18    C7      19.936002   20.995320   21.729587 C.3        1 MOL1        -0.1685
      19    H12     19.361530   21.899825   21.971799 H          1 MOL1         0.0832
      20    H13     20.535907   21.247393   20.844576 H          1 MOL1         0.0832
      21    O1      21.239219   19.889143   25.138611 O.3        1 MOL1        -0.5509
      22    H14     21.496763   20.814177   25.333966 H          1 MOL1         0.3779
@<TRIPOS>BOND
    1     1     2    1
    2     1     3    1
    3     1     4    1
    4     4     5    1
    5     4     6    1
    6     4     7    1
    7     7     8    1
    8     7     9    1
    9     7    10    1
   10    10    11    1
   11    10    12    1
   12    10    13    1
   13    13    14    1
   14    13    15    1
   15    15    16    1
   16    15    17    1
   17     1    18    1
   18    15    18    1
   19    18    19    1
   20    18    20    1
   21    13    21    1
   22    21    22    1
@<TRIPOS>SUBSTRUCTURE
       1 MOL1            1 RESIDUE      1      MOL     
@<SCITEGIC>MOL_PROPERTY
VConf Rank
SciTegic.value.IntegerValue
217

@<SCITEGIC>MOL_PROPERTY
Conf_Id
SciTegic.value.IntegerValue
141

@<SCITEGIC>MOL_PROPERTY
Delta U+W
SciTegic.value.DoubleValue
0.000

@<SCITEGIC>MOL_PROPERTY
U+W
SciTegic.value.DoubleValue
6.423

@<SCITEGIC>MOL_PROPERTY
Grad RMS
SciTegic.value.DoubleValue
0.000000

@<SCITEGIC>MOL_PROPERTY
U
SciTegic.value.DoubleValue
8.781

@<SCITEGIC>MOL_PROPERTY
W
SciTegic.value.DoubleValue
-2.358

@<SCITEGIC>MOL_PROPERTY
W(PB)
SciTegic.value.DoubleValue
-4.373

@<SCITEGIC>MOL_PROPERTY
W(SA)
SciTegic.value.DoubleValue
2.015

@<SCITEGIC>MOL_PROPERTY
Valence
SciTegic.value.DoubleValue
13.328

@<SCITEGIC>MOL_PROPERTY
Coulomb
SciTegic.value.DoubleValue
-8.387

@<SCITEGIC>MOL_PROPERTY
VdW
SciTegic.value.DoubleValue
3.840

@<SCITEGIC>MOL_PROPERTY
VdW6
SciTegic.value.DoubleValue
-9.744

@<SCITEGIC>MOL_PROPERTY
VdW12
SciTegic.value.DoubleValue
13.584

@<SCITEGIC>MOL_PROPERTY
Bond
SciTegic.value.DoubleValue
0.436

@<SCITEGIC>MOL_PROPERTY
Angle
SciTegic.value.DoubleValue
3.478

@<SCITEGIC>MOL_PROPERTY
Pdih
SciTegic.value.DoubleValue
9.415

@<SCITEGIC>MOL_PROPERTY
Idih
SciTegic.value.DoubleValue
0.000

@<SCITEGIC>MOL_PROPERTY
Tether
SciTegic.value.DoubleValue
0.000

@<TRIPOS>MOLECULE
guest-5_confgen4.mol2 : confsearch ligand conformer 218
          22          22           1
SMALL
USER_CHARGES
 
@<TRIPOS>ATOM
       1    C1      19.411565   19.801874   21.017365 C.3        1 MOL1        -0.1685
       2    H1      18.414189   20.030148   21.417039 H          1 MOL1         0.0832
       3    H2      19.334219   19.911767   19.927023 H          1 MOL1         0.0832
       4    C2      19.804573   18.334644   21.314743 C.3        1 MOL1        -0.1685
       5    H3      19.159957   17.672466   20.720735 H          1 MOL1         0.0832
       6    H4      20.827900   18.152523   20.959056 H          1 MOL1         0.0832
       7    C3      19.695610   17.910459   22.797486 C.3        1 MOL1        -0.1685
       8    H5      20.063417   16.879139   22.886500 H          1 MOL1         0.0832
       9    H6      18.637364   17.877435   23.090716 H          1 MOL1         0.0832
      10    C4      20.478684   18.801960   23.792072 C.3        1 MOL1        -0.1761
      11    H7      20.513583   18.274304   24.754281 H          1 MOL1         0.0832
      12    H8      21.521486   18.918336   23.469553 H          1 MOL1         0.0832
      13    C5      19.819403   20.183707   24.001233 C.3        1 MOL1         0.1218
      14    H9      18.730366   20.062659   23.910737 H          1 MOL1         0.0789
      15    C6      20.271690   21.269258   22.998082 C.3        1 MOL1        -0.1761
      16    H10     19.530158   22.077992   23.028547 H          1 MOL1         0.0832
      17    H11     21.214979   21.712995   23.343644 H          1 MOL1         0.0832
      18    C7      20.457957   20.820350   21.527085 C.3        1 MOL1        -0.1685
      19    H12     20.422965   21.715965   20.891888 H          1 MOL1         0.0832
      20    H13     21.466322   20.405225   21.394495 H          1 MOL1         0.0832
      21    O1      20.122339   20.642254   25.313171 O.3        1 MOL1        -0.5509
      22    H14     19.760332   19.977049   25.935321 H          1 MOL1         0.3779
@<TRIPOS>BOND
    1     1     2    1
    2     1     3    1
    3     1     4    1
    4     4     5    1
    5     4     6    1
    6     4     7    1
    7     7     8    1
    8     7     9    1
    9     7    10    1
   10    10    11    1
   11    10    12    1
   12    10    13    1
   13    13    14    1
   14    13    15    1
   15    15    16    1
   16    15    17    1
   17     1    18    1
   18    15    18    1
   19    18    19    1
   20    18    20    1
   21    13    21    1
   22    21    22    1
@<TRIPOS>SUBSTRUCTURE
       1 MOL1            1 RESIDUE      1      MOL     
@<SCITEGIC>MOL_PROPERTY
VConf Rank
SciTegic.value.IntegerValue
218

@<SCITEGIC>MOL_PROPERTY
Conf_Id
SciTegic.value.IntegerValue
144

@<SCITEGIC>MOL_PROPERTY
Delta U+W
SciTegic.value.DoubleValue
-3.291

@<SCITEGIC>MOL_PROPERTY
U+W
SciTegic.value.DoubleValue
3.132

@<SCITEGIC>MOL_PROPERTY
Grad RMS
SciTegic.value.DoubleValue
0.000000

@<SCITEGIC>MOL_PROPERTY
U
SciTegic.value.DoubleValue
5.411

@<SCITEGIC>MOL_PROPERTY
W
SciTegic.value.DoubleValue
-2.279

@<SCITEGIC>MOL_PROPERTY
W(PB)
SciTegic.value.DoubleValue
-4.300

@<SCITEGIC>MOL_PROPERTY
W(SA)
SciTegic.value.DoubleValue
2.021

@<SCITEGIC>MOL_PROPERTY
Valence
SciTegic.value.DoubleValue
11.909

@<SCITEGIC>MOL_PROPERTY
Coulomb
SciTegic.value.DoubleValue
-8.733

@<SCITEGIC>MOL_PROPERTY
VdW
SciTegic.value.DoubleValue
2.236

@<SCITEGIC>MOL_PROPERTY
VdW6
SciTegic.value.DoubleValue
-8.936

@<SCITEGIC>MOL_PROPERTY
VdW12
SciTegic.value.DoubleValue
11.172

@<SCITEGIC>MOL_PROPERTY
Bond
SciTegic.value.DoubleValue
0.223

@<SCITEGIC>MOL_PROPERTY
Angle
SciTegic.value.DoubleValue
2.457

@<SCITEGIC>MOL_PROPERTY
Pdih
SciTegic.value.DoubleValue
9.228

@<SCITEGIC>MOL_PROPERTY
Idih
SciTegic.value.DoubleValue
0.000

@<SCITEGIC>MOL_PROPERTY
Tether
SciTegic.value.DoubleValue
0.000

@<TRIPOS>MOLECULE
guest-5_confgen4.mol2 : confsearch ligand conformer 219
          22          22           1
SMALL
USER_CHARGES
 
@<TRIPOS>ATOM
       1    C1      18.892154   20.440031   21.595683 C.3        1 MOL1        -0.1685
       2    H1      18.190892   20.735518   20.803339 H          1 MOL1         0.0832
       3    H2      19.116421   21.355463   22.159927 H          1 MOL1         0.0832
       4    C2      20.167418   19.881573   20.921961 C.3        1 MOL1        -0.1685
       5    H3      20.006159   18.829676   20.649413 H          1 MOL1         0.0832
       6    H4      20.327291   20.409034   19.971581 H          1 MOL1         0.0832
       7    C3      21.462073   20.008104   21.760878 C.3        1 MOL1        -0.1685
       8    H5      21.882292   21.013360   21.620192 H          1 MOL1         0.0832
       9    H6      22.206514   19.313386   21.348335 H          1 MOL1         0.0832
      10    C4      21.322526   19.752458   23.281835 C.3        1 MOL1        -0.1761
      11    H7      22.324874   19.546742   23.681146 H          1 MOL1         0.0832
      12    H8      20.990034   20.675815   23.773523 H          1 MOL1         0.0832
      13    C5      20.368613   18.598389   23.663630 C.3        1 MOL1         0.1218
      14    H9      20.425211   17.806890   22.902844 H          1 MOL1         0.0789
      15    C6      18.903602   19.066642   23.816799 C.3        1 MOL1        -0.1761
      16    H10     18.333836   18.278120   24.326436 H          1 MOL1         0.0832
      17    H11     18.866192   19.942823   24.477098 H          1 MOL1         0.0832
      18    C7      18.178287   19.399207   22.491267 C.3        1 MOL1        -0.1685
      19    H12     18.020596   18.473834   21.920528 H          1 MOL1         0.0832
      20    H13     17.175165   19.775442   22.734124 H          1 MOL1         0.0832
      21    O1      20.789185   18.065704   24.912460 O.3        1 MOL1        -0.5509
      22    H14     20.726738   18.797413   25.560427 H          1 MOL1         0.3779
@<TRIPOS>BOND
    1     1     2    1
    2     1     3    1
    3     1     4    1
    4     4     5    1
    5     4     6    1
    6     4     7    1
    7     7     8    1
    8     7     9    1
    9     7    10    1
   10    10    11    1
   11    10    12    1
   12    10    13    1
   13    13    14    1
   14    13    15    1
   15    15    16    1
   16    15    17    1
   17     1    18    1
   18    15    18    1
   19    18    19    1
   20    18    20    1
   21    13    21    1
   22    21    22    1
@<TRIPOS>SUBSTRUCTURE
       1 MOL1            1 RESIDUE      1      MOL     
@<SCITEGIC>MOL_PROPERTY
VConf Rank
SciTegic.value.IntegerValue
219

@<SCITEGIC>MOL_PROPERTY
Conf_Id
SciTegic.value.IntegerValue
76

@<SCITEGIC>MOL_PROPERTY
Delta U+W
SciTegic.value.DoubleValue
-3.175

@<SCITEGIC>MOL_PROPERTY
U+W
SciTegic.value.DoubleValue
3.248

@<SCITEGIC>MOL_PROPERTY
Grad RMS
SciTegic.value.DoubleValue
0.000000

@<SCITEGIC>MOL_PROPERTY
U
SciTegic.value.DoubleValue
5.336

@<SCITEGIC>MOL_PROPERTY
W
SciTegic.value.DoubleValue
-2.088

@<SCITEGIC>MOL_PROPERTY
W(PB)
SciTegic.value.DoubleValue
-4.098

@<SCITEGIC>MOL_PROPERTY
W(SA)
SciTegic.value.DoubleValue
2.010

@<SCITEGIC>MOL_PROPERTY
Valence
SciTegic.value.DoubleValue
12.390

@<SCITEGIC>MOL_PROPERTY
Coulomb
SciTegic.value.DoubleValue
-9.270

@<SCITEGIC>MOL_PROPERTY
VdW
SciTegic.value.DoubleValue
2.216

@<SCITEGIC>MOL_PROPERTY
VdW6
SciTegic.value.DoubleValue
-8.967

@<SCITEGIC>MOL_PROPERTY
VdW12
SciTegic.value.DoubleValue
11.183

@<SCITEGIC>MOL_PROPERTY
Bond
SciTegic.value.DoubleValue
0.218

@<SCITEGIC>MOL_PROPERTY
Angle
SciTegic.value.DoubleValue
2.426

@<SCITEGIC>MOL_PROPERTY
Pdih
SciTegic.value.DoubleValue
9.745

@<SCITEGIC>MOL_PROPERTY
Idih
SciTegic.value.DoubleValue
0.000

@<SCITEGIC>MOL_PROPERTY
Tether
SciTegic.value.DoubleValue
0.000

@<TRIPOS>MOLECULE
guest-5_confgen4.mol2 : confsearch ligand conformer 220
          22          22           1
SMALL
USER_CHARGES
 
@<TRIPOS>ATOM
       1    C1      21.328742   20.935146   22.866855 C.3        1 MOL1        -0.1685
       2    H1      21.128086   21.998788   23.054431 H          1 MOL1         0.0832
       3    H2      22.422038   20.829860   22.887660 H          1 MOL1         0.0832
       4    C2      20.818607   20.589387   21.447388 C.3        1 MOL1        -0.1685
       5    H3      19.896841   21.150438   21.242333 H          1 MOL1         0.0832
       6    H4      21.555593   20.960441   20.722161 H          1 MOL1         0.0832
       7    C3      20.573221   19.084574   21.188806 C.3        1 MOL1        -0.1685
       8    H5      21.332653   18.469911   21.691090 H          1 MOL1         0.0832
       9    H6      20.694068   18.899258   20.113007 H          1 MOL1         0.0832
      10    C4      19.145668   18.632109   21.588116 C.3        1 MOL1        -0.1761
      11    H7      18.411794   19.307357   21.129877 H          1 MOL1         0.0832
      12    H8      18.954526   17.645433   21.146132 H          1 MOL1         0.0832
      13    C5      18.857637   18.538856   23.103847 C.3        1 MOL1         0.1218
      14    H9      17.773794   18.388158   23.211890 H          1 MOL1         0.0789
      15    C6      19.226293   19.800758   23.923715 C.3        1 MOL1        -0.1761
      16    H10     18.700451   20.674720   23.518056 H          1 MOL1         0.0832
      17    H11     18.831823   19.662995   24.938704 H          1 MOL1         0.0832
      18    C7      20.744824   20.097561   24.029488 C.3        1 MOL1        -0.1685
      19    H12     20.934489   20.641145   24.964883 H          1 MOL1         0.0832
      20    H13     21.306809   19.158716   24.119958 H          1 MOL1         0.0832
      21    O1      19.519638   17.396951   23.638477 O.3        1 MOL1        -0.5509
      22    H14     19.354627   17.405245   24.603354 H          1 MOL1         0.3779
@<TRIPOS>BOND
    1     1     2    1
    2     1     3    1
    3     1     4    1
    4     4     5    1
    5     4     6    1
    6     4     7    1
    7     7     8    1
    8     7     9    1
    9     7    10    1
   10    10    11    1
   11    10    12    1
   12    10    13    1
   13    13    14    1
   14    13    15    1
   15    15    16    1
   16    15    17    1
   17     1    18    1
   18    15    18    1
   19    18    19    1
   20    18    20    1
   21    13    21    1
   22    21    22    1
@<TRIPOS>SUBSTRUCTURE
       1 MOL1            1 RESIDUE      1      MOL     
@<SCITEGIC>MOL_PROPERTY
VConf Rank
SciTegic.value.IntegerValue
220

@<SCITEGIC>MOL_PROPERTY
Conf_Id
SciTegic.value.IntegerValue
95

@<SCITEGIC>MOL_PROPERTY
Delta U+W
SciTegic.value.DoubleValue
-2.289

@<SCITEGIC>MOL_PROPERTY
U+W
SciTegic.value.DoubleValue
4.134

@<SCITEGIC>MOL_PROPERTY
Grad RMS
SciTegic.value.DoubleValue
0.000000

@<SCITEGIC>MOL_PROPERTY
U
SciTegic.value.DoubleValue
6.373

@<SCITEGIC>MOL_PROPERTY
W
SciTegic.value.DoubleValue
-2.240

@<SCITEGIC>MOL_PROPERTY
W(PB)
SciTegic.value.DoubleValue
-4.254

@<SCITEGIC>MOL_PROPERTY
W(SA)
SciTegic.value.DoubleValue
2.015

@<SCITEGIC>MOL_PROPERTY
Valence
SciTegic.value.DoubleValue
12.093

@<SCITEGIC>MOL_PROPERTY
Coulomb
SciTegic.value.DoubleValue
-8.058

@<SCITEGIC>MOL_PROPERTY
VdW
SciTegic.value.DoubleValue
2.339

@<SCITEGIC>MOL_PROPERTY
VdW6
SciTegic.value.DoubleValue
-9.683

@<SCITEGIC>MOL_PROPERTY
VdW12
SciTegic.value.DoubleValue
12.022

@<SCITEGIC>MOL_PROPERTY
Bond
SciTegic.value.DoubleValue
0.268

@<SCITEGIC>MOL_PROPERTY
Angle
SciTegic.value.DoubleValue
3.005

@<SCITEGIC>MOL_PROPERTY
Pdih
SciTegic.value.DoubleValue
8.820

@<SCITEGIC>MOL_PROPERTY
Idih
SciTegic.value.DoubleValue
0.000

@<SCITEGIC>MOL_PROPERTY
Tether
SciTegic.value.DoubleValue
0.000

@<TRIPOS>MOLECULE
guest-5_confgen4.mol2 : confsearch ligand conformer 221
          22          22           1
SMALL
USER_CHARGES
 
@<TRIPOS>ATOM
       1    C1      19.722440   17.753389   22.888065 C.3        1 MOL1        -0.1685
       2    H1      19.424239   17.203212   23.790914 H          1 MOL1         0.0832
       3    H2      19.762157   17.006455   22.083514 H          1 MOL1         0.0832
       4    C2      21.143779   18.321456   23.114828 C.3        1 MOL1        -0.1685
       5    H3      21.252929   18.626007   24.164502 H          1 MOL1         0.0832
       6    H4      21.862996   17.503731   22.970421 H          1 MOL1         0.0832
       7    C3      21.532875   19.500911   22.193414 C.3        1 MOL1        -0.1685
       8    H5      21.128978   19.359316   21.181664 H          1 MOL1         0.0832
       9    H6      22.626144   19.503766   22.087673 H          1 MOL1         0.0832
      10    C4      21.110747   20.875260   22.771585 C.3        1 MOL1        -0.1761
      11    H7      21.456121   20.948817   23.810913 H          1 MOL1         0.0832
      12    H8      21.648518   21.664080   22.229785 H          1 MOL1         0.0832
      13    C5      19.599587   21.198193   22.728624 C.3        1 MOL1         0.1218
      14    H9      19.452674   22.110382   23.324803 H          1 MOL1         0.0789
      15    C6      18.676786   20.108854   23.330381 C.3        1 MOL1        -0.1761
      16    H10     18.959182   19.912559   24.372594 H          1 MOL1         0.0832
      17    H11     17.662850   20.527576   23.368257 H          1 MOL1         0.0832
      18    C7      18.619530   18.779302   22.533854 C.3        1 MOL1        -0.1685
      19    H12     17.646068   18.303112   22.712272 H          1 MOL1         0.0832
      20    H13     18.646562   18.988356   21.456271 H          1 MOL1         0.0832
      21    O1      19.214631   21.478813   21.386255 O.3        1 MOL1        -0.5509
      22    H14     19.836544   22.156271   21.050903 H          1 MOL1         0.3779
@<TRIPOS>BOND
    1     1     2    1
    2     1     3    1
    3     1     4    1
    4     4     5    1
    5     4     6    1
    6     4     7    1
    7     7     8    1
    8     7     9    1
    9     7    10    1
   10    10    11    1
   11    10    12    1
   12    10    13    1
   13    13    14    1
   14    13    15    1
   15    15    16    1
   16    15    17    1
   17     1    18    1
   18    15    18    1
   19    18    19    1
   20    18    20    1
   21    13    21    1
   22    21    22    1
@<TRIPOS>SUBSTRUCTURE
       1 MOL1            1 RESIDUE      1      MOL     
@<SCITEGIC>MOL_PROPERTY
VConf Rank
SciTegic.value.IntegerValue
221

@<SCITEGIC>MOL_PROPERTY
Conf_Id
SciTegic.value.IntegerValue
41

@<SCITEGIC>MOL_PROPERTY
Delta U+W
SciTegic.value.DoubleValue
-2.114

@<SCITEGIC>MOL_PROPERTY
U+W
SciTegic.value.DoubleValue
4.310

@<SCITEGIC>MOL_PROPERTY
Grad RMS
SciTegic.value.DoubleValue
0.000000

@<SCITEGIC>MOL_PROPERTY
U
SciTegic.value.DoubleValue
6.598

@<SCITEGIC>MOL_PROPERTY
W
SciTegic.value.DoubleValue
-2.289

@<SCITEGIC>MOL_PROPERTY
W(PB)
SciTegic.value.DoubleValue
-4.294

@<SCITEGIC>MOL_PROPERTY
W(SA)
SciTegic.value.DoubleValue
2.005

@<SCITEGIC>MOL_PROPERTY
Valence
SciTegic.value.DoubleValue
12.082

@<SCITEGIC>MOL_PROPERTY
Coulomb
SciTegic.value.DoubleValue
-7.801

@<SCITEGIC>MOL_PROPERTY
VdW
SciTegic.value.DoubleValue
2.317

@<SCITEGIC>MOL_PROPERTY
VdW6
SciTegic.value.DoubleValue
-9.658

@<SCITEGIC>MOL_PROPERTY
VdW12
SciTegic.value.DoubleValue
11.975

@<SCITEGIC>MOL_PROPERTY
Bond
SciTegic.value.DoubleValue
0.267

@<SCITEGIC>MOL_PROPERTY
Angle
SciTegic.value.DoubleValue
3.051

@<SCITEGIC>MOL_PROPERTY
Pdih
SciTegic.value.DoubleValue
8.764

@<SCITEGIC>MOL_PROPERTY
Idih
SciTegic.value.DoubleValue
0.000

@<SCITEGIC>MOL_PROPERTY
Tether
SciTegic.value.DoubleValue
0.000

@<TRIPOS>MOLECULE
guest-5_confgen4.mol2 : confsearch ligand conformer 222
          22          22           1
SMALL
USER_CHARGES
 
@<TRIPOS>ATOM
       1    C1      19.708895   17.980217   23.171122 C.3        1 MOL1        -0.1685
       2    H1      19.585766   17.020633   23.691302 H          1 MOL1         0.0832
       3    H2      18.950523   17.999235   22.376335 H          1 MOL1         0.0832
       4    C2      21.131754   18.014037   22.569694 C.3        1 MOL1        -0.1685
       5    H3      21.872269   18.057337   23.379845 H          1 MOL1         0.0832
       6    H4      21.313746   17.065913   22.045767 H          1 MOL1         0.0832
       7    C3      21.384686   19.170710   21.578052 C.3        1 MOL1        -0.1685
       8    H5      20.791684   19.008241   20.668194 H          1 MOL1         0.0832
       9    H6      22.434021   19.118729   21.258178 H          1 MOL1         0.0832
      10    C4      21.115512   20.592818   22.140494 C.3        1 MOL1        -0.1761
      11    H7      21.646950   20.728825   23.090933 H          1 MOL1         0.0832
      12    H8      21.562402   21.314938   21.445213 H          1 MOL1         0.0832
      13    C5      19.625034   20.984838   22.310284 C.3        1 MOL1         0.1218
      14    H9      19.595332   22.080522   22.399003 H          1 MOL1         0.0789
      15    C6      18.919344   20.430700   23.575224 C.3        1 MOL1        -0.1761
      16    H10     18.965681   21.202554   24.354427 H          1 MOL1         0.0832
      17    H11     17.850288   20.301663   23.360885 H          1 MOL1         0.0832
      18    C7      19.463708   19.116621   24.188219 C.3        1 MOL1        -0.1685
      19    H12     20.386672   19.320305   24.747741 H          1 MOL1         0.0832
      20    H13     18.737434   18.768631   24.935284 H          1 MOL1         0.0832
      21    O1      18.880069   20.626188   21.149545 O.3        1 MOL1        -0.5509
      22    H14     17.962114   20.931974   21.297067 H          1 MOL1         0.3779
@<TRIPOS>BOND
    1     1     2    1
    2     1     3    1
    3     1     4    1
    4     4     5    1
    5     4     6    1
    6     4     7    1
    7     7     8    1
    8     7     9    1
    9     7    10    1
   10    10    11    1
   11    10    12    1
   12    10    13    1
   13    13    14    1
   14    13    15    1
   15    15    16    1
   16    15    17    1
   17     1    18    1
   18    15    18    1
   19    18    19    1
   20    18    20    1
   21    13    21    1
   22    21    22    1
@<TRIPOS>SUBSTRUCTURE
       1 MOL1            1 RESIDUE      1      MOL     
@<SCITEGIC>MOL_PROPERTY
VConf Rank
SciTegic.value.IntegerValue
222

@<SCITEGIC>MOL_PROPERTY
Conf_Id
SciTegic.value.IntegerValue
104

@<SCITEGIC>MOL_PROPERTY
Delta U+W
SciTegic.value.DoubleValue
-1.172

@<SCITEGIC>MOL_PROPERTY
U+W
SciTegic.value.DoubleValue
5.252

@<SCITEGIC>MOL_PROPERTY
Grad RMS
SciTegic.value.DoubleValue
0.000000

@<SCITEGIC>MOL_PROPERTY
U
SciTegic.value.DoubleValue
7.482

@<SCITEGIC>MOL_PROPERTY
W
SciTegic.value.DoubleValue
-2.230

@<SCITEGIC>MOL_PROPERTY
W(PB)
SciTegic.value.DoubleValue
-4.220

@<SCITEGIC>MOL_PROPERTY
W(SA)
SciTegic.value.DoubleValue
1.990

@<SCITEGIC>MOL_PROPERTY
Valence
SciTegic.value.DoubleValue
12.309

@<SCITEGIC>MOL_PROPERTY
Coulomb
SciTegic.value.DoubleValue
-7.084

@<SCITEGIC>MOL_PROPERTY
VdW
SciTegic.value.DoubleValue
2.258

@<SCITEGIC>MOL_PROPERTY
VdW6
SciTegic.value.DoubleValue
-9.770

@<SCITEGIC>MOL_PROPERTY
VdW12
SciTegic.value.DoubleValue
12.028

@<SCITEGIC>MOL_PROPERTY
Bond
SciTegic.value.DoubleValue
0.284

@<SCITEGIC>MOL_PROPERTY
Angle
SciTegic.value.DoubleValue
3.491

@<SCITEGIC>MOL_PROPERTY
Pdih
SciTegic.value.DoubleValue
8.535

@<SCITEGIC>MOL_PROPERTY
Idih
SciTegic.value.DoubleValue
0.000

@<SCITEGIC>MOL_PROPERTY
Tether
SciTegic.value.DoubleValue
0.000

@<TRIPOS>MOLECULE
guest-5_confgen4.mol2 : confsearch ligand conformer 223
          22          22           1
SMALL
USER_CHARGES
 
@<TRIPOS>ATOM
       1    C1      19.747204   18.528637   21.450657 C.3        1 MOL1        -0.1685
       2    H1      18.692323   18.826551   21.380255 H          1 MOL1         0.0832
       3    H2      19.886121   17.731046   20.708032 H          1 MOL1         0.0832
       4    C2      20.062244   17.937533   22.843794 C.3        1 MOL1        -0.1685
       5    H3      19.710085   16.897096   22.870687 H          1 MOL1         0.0832
       6    H4      21.150478   17.872310   22.973516 H          1 MOL1         0.0832
       7    C3      19.429623   18.681034   24.047402 C.3        1 MOL1        -0.1685
       8    H5      20.044454   18.488273   24.937425 H          1 MOL1         0.0832
       9    H6      18.453767   18.225019   24.263465 H          1 MOL1         0.0832
      10    C4      19.208911   20.211213   23.902351 C.3        1 MOL1        -0.1761
      11    H7      18.306669   20.388370   23.302742 H          1 MOL1         0.0832
      12    H8      18.977782   20.615900   24.896238 H          1 MOL1         0.0832
      13    C5      20.371557   21.037236   23.305759 C.3        1 MOL1         0.1218
      14    H9      20.232537   22.078729   23.629557 H          1 MOL1         0.0789
      15    C6      20.370470   21.045951   21.760382 C.3        1 MOL1        -0.1761
      16    H10     19.395916   21.411502   21.411557 H          1 MOL1         0.0832
      17    H11     21.103439   21.789895   21.421932 H          1 MOL1         0.0832
      18    C7      20.680902   19.699311   21.061107 C.3        1 MOL1        -0.1685
      19    H12     20.601836   19.857346   19.976909 H          1 MOL1         0.0832
      20    H13     21.727008   19.417878   21.242590 H          1 MOL1         0.0832
      21    O1      21.618876   20.565662   23.791539 O.3        1 MOL1        -0.5509
      22    H14     21.631509   19.621029   23.538961 H          1 MOL1         0.3779
@<TRIPOS>BOND
    1     1     2    1
    2     1     3    1
    3     1     4    1
    4     4     5    1
    5     4     6    1
    6     4     7    1
    7     7     8    1
    8     7     9    1
    9     7    10    1
   10    10    11    1
   11    10    12    1
   12    10    13    1
   13    13    14    1
   14    13    15    1
   15    15    16    1
   16    15    17    1
   17     1    18    1
   18    15    18    1
   19    18    19    1
   20    18    20    1
   21    13    21    1
   22    21    22    1
@<TRIPOS>SUBSTRUCTURE
       1 MOL1            1 RESIDUE      1      MOL     
@<SCITEGIC>MOL_PROPERTY
VConf Rank
SciTegic.value.IntegerValue
223

@<SCITEGIC>MOL_PROPERTY
Conf_Id
SciTegic.value.IntegerValue
99

@<SCITEGIC>MOL_PROPERTY
Delta U+W
SciTegic.value.DoubleValue
-3.852

@<SCITEGIC>MOL_PROPERTY
U+W
SciTegic.value.DoubleValue
2.572

@<SCITEGIC>MOL_PROPERTY
Grad RMS
SciTegic.value.DoubleValue
0.000000

@<SCITEGIC>MOL_PROPERTY
U
SciTegic.value.DoubleValue
3.922

@<SCITEGIC>MOL_PROPERTY
W
SciTegic.value.DoubleValue
-1.350

@<SCITEGIC>MOL_PROPERTY
W(PB)
SciTegic.value.DoubleValue
-3.345

@<SCITEGIC>MOL_PROPERTY
W(SA)
SciTegic.value.DoubleValue
1.995

@<SCITEGIC>MOL_PROPERTY
Valence
SciTegic.value.DoubleValue
12.571

@<SCITEGIC>MOL_PROPERTY
Coulomb
SciTegic.value.DoubleValue
-10.581

@<SCITEGIC>MOL_PROPERTY
VdW
SciTegic.value.DoubleValue
1.932

@<SCITEGIC>MOL_PROPERTY
VdW6
SciTegic.value.DoubleValue
-10.483

@<SCITEGIC>MOL_PROPERTY
VdW12
SciTegic.value.DoubleValue
12.415

@<SCITEGIC>MOL_PROPERTY
Bond
SciTegic.value.DoubleValue
0.268

@<SCITEGIC>MOL_PROPERTY
Angle
SciTegic.value.DoubleValue
3.728

@<SCITEGIC>MOL_PROPERTY
Pdih
SciTegic.value.DoubleValue
8.575

@<SCITEGIC>MOL_PROPERTY
Idih
SciTegic.value.DoubleValue
0.000

@<SCITEGIC>MOL_PROPERTY
Tether
SciTegic.value.DoubleValue
0.000

@<TRIPOS>MOLECULE
guest-5_confgen4.mol2 : confsearch ligand conformer 224
          22          22           1
SMALL
USER_CHARGES
 
@<TRIPOS>ATOM
       1    C1      18.856551   19.088094   23.697327 C.3        1 MOL1        -0.1685
       2    H1      18.371510   18.327769   24.324967 H          1 MOL1         0.0832
       3    H2      18.228728   19.983173   23.800908 H          1 MOL1         0.0832
       4    C2      18.828889   18.580819   22.225676 C.3        1 MOL1        -0.1685
       5    H3      18.331729   17.601005   22.216318 H          1 MOL1         0.0832
       6    H4      18.187742   19.229389   21.613842 H          1 MOL1         0.0832
       7    C3      20.208341   18.416953   21.537919 C.3        1 MOL1        -0.1685
       8    H5      20.062112   17.877009   20.592508 H          1 MOL1         0.0832
       9    H6      20.844911   17.754812   22.137851 H          1 MOL1         0.0832
      10    C4      20.971943   19.732642   21.220581 C.3        1 MOL1        -0.1761
      11    H7      22.038433   19.494086   21.118444 H          1 MOL1         0.0832
      12    H8      20.657480   20.085649   20.229372 H          1 MOL1         0.0832
      13    C5      20.827257   20.918777   22.205623 C.3        1 MOL1         0.1218
      14    H9      21.601399   21.652244   21.938221 H          1 MOL1         0.0789
      15    C6      21.018434   20.589975   23.706784 C.3        1 MOL1        -0.1761
      16    H10     22.090439   20.452980   23.898559 H          1 MOL1         0.0832
      17    H11     20.732990   21.482272   24.279781 H          1 MOL1         0.0832
      18    C7      20.260115   19.366904   24.293171 C.3        1 MOL1        -0.1685
      19    H12     20.883939   18.468535   24.207477 H          1 MOL1         0.0832
      20    H13     20.152002   19.525662   25.374759 H          1 MOL1         0.0832
      21    O1      19.570063   21.547541   22.012327 O.3        1 MOL1        -0.5509
      22    H14     18.920863   20.859610   22.261773 H          1 MOL1         0.3779
@<TRIPOS>BOND
    1     1     2    1
    2     1     3    1
    3     1     4    1
    4     4     5    1
    5     4     6    1
    6     4     7    1
    7     7     8    1
    8     7     9    1
    9     7    10    1
   10    10    11    1
   11    10    12    1
   12    10    13    1
   13    13    14    1
   14    13    15    1
   15    15    16    1
   16    15    17    1
   17     1    18    1
   18    15    18    1
   19    18    19    1
   20    18    20    1
   21    13    21    1
   22    21    22    1
@<TRIPOS>SUBSTRUCTURE
       1 MOL1            1 RESIDUE      1      MOL     
@<SCITEGIC>MOL_PROPERTY
VConf Rank
SciTegic.value.IntegerValue
224

@<SCITEGIC>MOL_PROPERTY
Conf_Id
SciTegic.value.IntegerValue
98

@<SCITEGIC>MOL_PROPERTY
Delta U+W
SciTegic.value.DoubleValue
0.930

@<SCITEGIC>MOL_PROPERTY
U+W
SciTegic.value.DoubleValue
7.353

@<SCITEGIC>MOL_PROPERTY
Grad RMS
SciTegic.value.DoubleValue
0.000000

@<SCITEGIC>MOL_PROPERTY
U
SciTegic.value.DoubleValue
8.455

@<SCITEGIC>MOL_PROPERTY
W
SciTegic.value.DoubleValue
-1.102

@<SCITEGIC>MOL_PROPERTY
W(PB)
SciTegic.value.DoubleValue
-3.101

@<SCITEGIC>MOL_PROPERTY
W(SA)
SciTegic.value.DoubleValue
2.000

@<SCITEGIC>MOL_PROPERTY
Valence
SciTegic.value.DoubleValue
15.601

@<SCITEGIC>MOL_PROPERTY
Coulomb
SciTegic.value.DoubleValue
-10.573

@<SCITEGIC>MOL_PROPERTY
VdW
SciTegic.value.DoubleValue
3.427

@<SCITEGIC>MOL_PROPERTY
VdW6
SciTegic.value.DoubleValue
-11.360

@<SCITEGIC>MOL_PROPERTY
VdW12
SciTegic.value.DoubleValue
14.787

@<SCITEGIC>MOL_PROPERTY
Bond
SciTegic.value.DoubleValue
0.471

@<SCITEGIC>MOL_PROPERTY
Angle
SciTegic.value.DoubleValue
5.445

@<SCITEGIC>MOL_PROPERTY
Pdih
SciTegic.value.DoubleValue
9.685

@<SCITEGIC>MOL_PROPERTY
Idih
SciTegic.value.DoubleValue
0.000

@<SCITEGIC>MOL_PROPERTY
Tether
SciTegic.value.DoubleValue
0.000

@<TRIPOS>MOLECULE
guest-5_confgen4.mol2 : confsearch ligand conformer 225
          22          22           1
SMALL
USER_CHARGES
 
@<TRIPOS>ATOM
       1    C1      18.467014   20.158528   23.062109 C.3        1 MOL1        -0.1685
       2    H1      18.790981   20.135960   24.110593 H          1 MOL1         0.0832
       3    H2      17.461405   20.600106   23.083850 H          1 MOL1         0.0832
       4    C2      18.358909   18.712106   22.515909 C.3        1 MOL1        -0.1685
       5    H3      17.633552   18.175410   23.142558 H          1 MOL1         0.0832
       6    H4      17.923838   18.731432   21.507464 H          1 MOL1         0.0832
       7    C3      19.676302   17.888492   22.487926 C.3        1 MOL1        -0.1685
       8    H5      20.067441   17.838864   21.463444 H          1 MOL1         0.0832
       9    H6      19.435951   16.849017   22.749381 H          1 MOL1         0.0832
      10    C4      20.789229   18.396485   23.442412 C.3        1 MOL1        -0.1761
      11    H7      20.375159   18.504945   24.452565 H          1 MOL1         0.0832
      12    H8      21.551000   17.610452   23.533218 H          1 MOL1         0.0832
      13    C5      21.484518   19.726819   23.029308 C.3        1 MOL1         0.1218
      14    H9      21.546350   20.367773   23.920612 H          1 MOL1         0.0789
      15    C6      20.790250   20.532057   21.902436 C.3        1 MOL1        -0.1761
      16    H10     21.433869   21.375174   21.619656 H          1 MOL1         0.0832
      17    H11     20.716198   19.914457   20.999288 H          1 MOL1         0.0832
      18    C7      19.392783   21.099526   22.255813 C.3        1 MOL1        -0.1685
      19    H12     19.520715   22.027239   22.830091 H          1 MOL1         0.0832
      20    H13     18.888715   21.389207   21.323787 H          1 MOL1         0.0832
      21    O1      22.804156   19.427632   22.588606 O.3        1 MOL1        -0.5509
      22    H14     23.236916   20.284122   22.390309 H          1 MOL1         0.3779
@<TRIPOS>BOND
    1     1     2    1
    2     1     3    1
    3     1     4    1
    4     4     5    1
    5     4     6    1
    6     4     7    1
    7     7     8    1
    8     7     9    1
    9     7    10    1
   10    10    11    1
   11    10    12    1
   12    10    13    1
   13    13    14    1
   14    13    15    1
   15    15    16    1
   16    15    17    1
   17     1    18    1
   18    15    18    1
   19    18    19    1
   20    18    20    1
   21    13    21    1
   22    21    22    1
@<TRIPOS>SUBSTRUCTURE
       1 MOL1            1 RESIDUE      1      MOL     
@<SCITEGIC>MOL_PROPERTY
VConf Rank
SciTegic.value.IntegerValue
225

@<SCITEGIC>MOL_PROPERTY
Conf_Id
SciTegic.value.IntegerValue
141

@<SCITEGIC>MOL_PROPERTY
Delta U+W
SciTegic.value.DoubleValue
0.000

@<SCITEGIC>MOL_PROPERTY
U+W
SciTegic.value.DoubleValue
6.423

@<SCITEGIC>MOL_PROPERTY
Grad RMS
SciTegic.value.DoubleValue
0.000000

@<SCITEGIC>MOL_PROPERTY
U
SciTegic.value.DoubleValue
8.781

@<SCITEGIC>MOL_PROPERTY
W
SciTegic.value.DoubleValue
-2.358

@<SCITEGIC>MOL_PROPERTY
W(PB)
SciTegic.value.DoubleValue
-4.373

@<SCITEGIC>MOL_PROPERTY
W(SA)
SciTegic.value.DoubleValue
2.015

@<SCITEGIC>MOL_PROPERTY
Valence
SciTegic.value.DoubleValue
13.328

@<SCITEGIC>MOL_PROPERTY
Coulomb
SciTegic.value.DoubleValue
-8.387

@<SCITEGIC>MOL_PROPERTY
VdW
SciTegic.value.DoubleValue
3.840

@<SCITEGIC>MOL_PROPERTY
VdW6
SciTegic.value.DoubleValue
-9.744

@<SCITEGIC>MOL_PROPERTY
VdW12
SciTegic.value.DoubleValue
13.584

@<SCITEGIC>MOL_PROPERTY
Bond
SciTegic.value.DoubleValue
0.436

@<SCITEGIC>MOL_PROPERTY
Angle
SciTegic.value.DoubleValue
3.478

@<SCITEGIC>MOL_PROPERTY
Pdih
SciTegic.value.DoubleValue
9.415

@<SCITEGIC>MOL_PROPERTY
Idih
SciTegic.value.DoubleValue
0.000

@<SCITEGIC>MOL_PROPERTY
Tether
SciTegic.value.DoubleValue
0.000

@<TRIPOS>MOLECULE
guest-5_confgen4.mol2 : confsearch ligand conformer 226
          22          22           1
SMALL
USER_CHARGES
 
@<TRIPOS>ATOM
       1    C1      18.491523   19.974307   21.823538 C.3        1 MOL1        -0.1685
       2    H1      18.173686   20.560895   22.696179 H          1 MOL1         0.0832
       3    H2      17.695526   20.087997   21.074961 H          1 MOL1         0.0832
       4    C2      18.594263   18.470464   22.175042 C.3        1 MOL1        -0.1685
       5    H3      17.582316   18.083911   22.357786 H          1 MOL1         0.0832
       6    H4      18.971940   17.917867   21.303907 H          1 MOL1         0.0832
       7    C3      19.466650   18.139631   23.407852 C.3        1 MOL1        -0.1685
       8    H5      19.514258   17.046901   23.510328 H          1 MOL1         0.0832
       9    H6      18.967828   18.504233   24.316257 H          1 MOL1         0.0832
      10    C4      20.911159   18.694391   23.354794 C.3        1 MOL1        -0.1761
      11    H7      21.483796   18.206188   24.154312 H          1 MOL1         0.0832
      12    H8      21.399904   18.412487   22.413170 H          1 MOL1         0.0832
      13    C5      20.970182   20.225004   23.558184 C.3        1 MOL1         0.1218
      14    H9      20.157153   20.513205   24.239922 H          1 MOL1         0.0789
      15    C6      20.829666   21.051096   22.259290 C.3        1 MOL1        -0.1761
      16    H10     20.564380   22.076843   22.546199 H          1 MOL1         0.0832
      17    H11     21.808002   21.120526   21.765177 H          1 MOL1         0.0832
      18    C7      19.798060   20.542283   21.221533 C.3        1 MOL1        -0.1685
      19    H12     19.549145   21.377526   20.552777 H          1 MOL1         0.0832
      20    H13     20.265596   19.782173   20.580945 H          1 MOL1         0.0832
      21    O1      22.214322   20.559676   24.160951 O.3        1 MOL1        -0.5509
      22    H14     22.249704   20.084907   25.017666 H          1 MOL1         0.3779
@<TRIPOS>BOND
    1     1     2    1
    2     1     3    1
    3     1     4    1
    4     4     5    1
    5     4     6    1
    6     4     7    1
    7     7     8    1
    8     7     9    1
    9     7    10    1
   10    10    11    1
   11    10    12    1
   12    10    13    1
   13    13    14    1
   14    13    15    1
   15    15    16    1
   16    15    17    1
   17     1    18    1
   18    15    18    1
   19    18    19    1
   20    18    20    1
   21    13    21    1
   22    21    22    1
@<TRIPOS>SUBSTRUCTURE
       1 MOL1            1 RESIDUE      1      MOL     
@<SCITEGIC>MOL_PROPERTY
VConf Rank
SciTegic.value.IntegerValue
226

@<SCITEGIC>MOL_PROPERTY
Conf_Id
SciTegic.value.IntegerValue
144

@<SCITEGIC>MOL_PROPERTY
Delta U+W
SciTegic.value.DoubleValue
-3.291

@<SCITEGIC>MOL_PROPERTY
U+W
SciTegic.value.DoubleValue
3.132

@<SCITEGIC>MOL_PROPERTY
Grad RMS
SciTegic.value.DoubleValue
0.000000

@<SCITEGIC>MOL_PROPERTY
U
SciTegic.value.DoubleValue
5.411

@<SCITEGIC>MOL_PROPERTY
W
SciTegic.value.DoubleValue
-2.279

@<SCITEGIC>MOL_PROPERTY
W(PB)
SciTegic.value.DoubleValue
-4.300

@<SCITEGIC>MOL_PROPERTY
W(SA)
SciTegic.value.DoubleValue
2.021

@<SCITEGIC>MOL_PROPERTY
Valence
SciTegic.value.DoubleValue
11.909

@<SCITEGIC>MOL_PROPERTY
Coulomb
SciTegic.value.DoubleValue
-8.733

@<SCITEGIC>MOL_PROPERTY
VdW
SciTegic.value.DoubleValue
2.236

@<SCITEGIC>MOL_PROPERTY
VdW6
SciTegic.value.DoubleValue
-8.936

@<SCITEGIC>MOL_PROPERTY
VdW12
SciTegic.value.DoubleValue
11.172

@<SCITEGIC>MOL_PROPERTY
Bond
SciTegic.value.DoubleValue
0.223

@<SCITEGIC>MOL_PROPERTY
Angle
SciTegic.value.DoubleValue
2.457

@<SCITEGIC>MOL_PROPERTY
Pdih
SciTegic.value.DoubleValue
9.228

@<SCITEGIC>MOL_PROPERTY
Idih
SciTegic.value.DoubleValue
0.000

@<SCITEGIC>MOL_PROPERTY
Tether
SciTegic.value.DoubleValue
0.000

@<TRIPOS>MOLECULE
guest-5_confgen4.mol2 : confsearch ligand conformer 227
          22          22           1
SMALL
USER_CHARGES
 
@<TRIPOS>ATOM
       1    C1      21.382441   18.621857   22.887741 C.3        1 MOL1        -0.1685
       2    H1      22.137699   17.914176   23.256067 H          1 MOL1         0.0832
       3    H2      21.840483   19.137423   22.032714 H          1 MOL1         0.0832
       4    C2      21.065186   19.618724   24.026898 C.3        1 MOL1        -0.1685
       5    H3      20.333957   19.169527   24.712684 H          1 MOL1         0.0832
       6    H4      21.972535   19.773374   24.626731 H          1 MOL1         0.0832
       7    C3      20.558352   21.005782   23.563098 C.3        1 MOL1        -0.1685
       8    H5      21.422251   21.636516   23.312560 H          1 MOL1         0.0832
       9    H6      20.069878   21.494803   24.417071 H          1 MOL1         0.0832
      10    C4      19.589007   21.014098   22.355439 C.3        1 MOL1        -0.1761
      11    H7      19.065857   21.979897   22.351377 H          1 MOL1         0.0832
      12    H8      20.171538   20.987268   21.425476 H          1 MOL1         0.0832
      13    C5      18.553844   19.866981   22.343058 C.3        1 MOL1         0.1218
      14    H9      18.260045   19.624957   23.374356 H          1 MOL1         0.0789
      15    C6      19.086500   18.595704   21.643694 C.3        1 MOL1        -0.1761
      16    H10     18.240940   17.924179   21.443163 H          1 MOL1         0.0832
      17    H11     19.500450   18.863354   20.662830 H          1 MOL1         0.0832
      18    C7      20.147566   17.802176   22.442548 C.3        1 MOL1        -0.1685
      19    H12     19.674708   17.347220   23.323653 H          1 MOL1         0.0832
      20    H13     20.489417   16.963918   21.820255 H          1 MOL1         0.0832
      21    O1      17.406112   20.308566   21.630368 O.3        1 MOL1        -0.5509
      22    H14     17.707304   20.515129   20.721646 H          1 MOL1         0.3779
@<TRIPOS>BOND
    1     1     2    1
    2     1     3    1
    3     1     4    1
    4     4     5    1
    5     4     6    1
    6     4     7    1
    7     7     8    1
    8     7     9    1
    9     7    10    1
   10    10    11    1
   11    10    12    1
   12    10    13    1
   13    13    14    1
   14    13    15    1
   15    15    16    1
   16    15    17    1
   17     1    18    1
   18    15    18    1
   19    18    19    1
   20    18    20    1
   21    13    21    1
   22    21    22    1
@<TRIPOS>SUBSTRUCTURE
       1 MOL1            1 RESIDUE      1      MOL     
@<SCITEGIC>MOL_PROPERTY
VConf Rank
SciTegic.value.IntegerValue
227

@<SCITEGIC>MOL_PROPERTY
Conf_Id
SciTegic.value.IntegerValue
76

@<SCITEGIC>MOL_PROPERTY
Delta U+W
SciTegic.value.DoubleValue
-3.175

@<SCITEGIC>MOL_PROPERTY
U+W
SciTegic.value.DoubleValue
3.248

@<SCITEGIC>MOL_PROPERTY
Grad RMS
SciTegic.value.DoubleValue
0.000000

@<SCITEGIC>MOL_PROPERTY
U
SciTegic.value.DoubleValue
5.336

@<SCITEGIC>MOL_PROPERTY
W
SciTegic.value.DoubleValue
-2.088

@<SCITEGIC>MOL_PROPERTY
W(PB)
SciTegic.value.DoubleValue
-4.098

@<SCITEGIC>MOL_PROPERTY
W(SA)
SciTegic.value.DoubleValue
2.010

@<SCITEGIC>MOL_PROPERTY
Valence
SciTegic.value.DoubleValue
12.390

@<SCITEGIC>MOL_PROPERTY
Coulomb
SciTegic.value.DoubleValue
-9.270

@<SCITEGIC>MOL_PROPERTY
VdW
SciTegic.value.DoubleValue
2.216

@<SCITEGIC>MOL_PROPERTY
VdW6
SciTegic.value.DoubleValue
-8.967

@<SCITEGIC>MOL_PROPERTY
VdW12
SciTegic.value.DoubleValue
11.183

@<SCITEGIC>MOL_PROPERTY
Bond
SciTegic.value.DoubleValue
0.218

@<SCITEGIC>MOL_PROPERTY
Angle
SciTegic.value.DoubleValue
2.426

@<SCITEGIC>MOL_PROPERTY
Pdih
SciTegic.value.DoubleValue
9.745

@<SCITEGIC>MOL_PROPERTY
Idih
SciTegic.value.DoubleValue
0.000

@<SCITEGIC>MOL_PROPERTY
Tether
SciTegic.value.DoubleValue
0.000

@<TRIPOS>MOLECULE
guest-5_confgen4.mol2 : confsearch ligand conformer 228
          22          22           1
SMALL
USER_CHARGES
 
@<TRIPOS>ATOM
       1    C1      20.352334   17.755192   22.254088 C.3        1 MOL1        -0.1685
       2    H1      19.594063   17.013205   21.969025 H          1 MOL1         0.0832
       3    H2      21.320464   17.245928   22.153142 H          1 MOL1         0.0832
       4    C2      20.132837   18.124931   23.740624 C.3        1 MOL1        -0.1685
       5    H3      19.056637   18.138804   23.959895 H          1 MOL1         0.0832
       6    H4      20.547492   17.315290   24.356519 H          1 MOL1         0.0832
       7    C3      20.765033   19.465590   24.181652 C.3        1 MOL1        -0.1685
       8    H5      21.733009   19.625744   23.687476 H          1 MOL1         0.0832
       9    H6      20.978535   19.404454   25.257277 H          1 MOL1         0.0832
      10    C4      19.823816   20.675974   23.955462 C.3        1 MOL1        -0.1761
      11    H7      18.843118   20.457875   24.397251 H          1 MOL1         0.0832
      12    H8      20.215745   21.534148   24.517016 H          1 MOL1         0.0832
      13    C5      19.621372   21.119037   22.488558 C.3        1 MOL1         0.1218
      14    H9      18.801757   21.852064   22.489040 H          1 MOL1         0.0789
      15    C6      19.221071   19.988423   21.507763 C.3        1 MOL1        -0.1761
      16    H10     18.302894   19.499597   21.858303 H          1 MOL1         0.0832
      17    H11     18.959457   20.457716   20.550626 H          1 MOL1         0.0832
      18    C7      20.319485   18.926056   21.243038 C.3        1 MOL1        -0.1685
      19    H12     20.167207   18.502131   20.241278 H          1 MOL1         0.0832
      20    H13     21.306695   19.405305   21.208729 H          1 MOL1         0.0832
      21    O1      20.800149   21.772090   22.028093 O.3        1 MOL1        -0.5509
      22    H14     20.649049   21.988255   21.085371 H          1 MOL1         0.3779
@<TRIPOS>BOND
    1     1     2    1
    2     1     3    1
    3     1     4    1
    4     4     5    1
    5     4     6    1
    6     4     7    1
    7     7     8    1
    8     7     9    1
    9     7    10    1
   10    10    11    1
   11    10    12    1
   12    10    13    1
   13    13    14    1
   14    13    15    1
   15    15    16    1
   16    15    17    1
   17     1    18    1
   18    15    18    1
   19    18    19    1
   20    18    20    1
   21    13    21    1
   22    21    22    1
@<TRIPOS>SUBSTRUCTURE
       1 MOL1            1 RESIDUE      1      MOL     
@<SCITEGIC>MOL_PROPERTY
VConf Rank
SciTegic.value.IntegerValue
228

@<SCITEGIC>MOL_PROPERTY
Conf_Id
SciTegic.value.IntegerValue
95

@<SCITEGIC>MOL_PROPERTY
Delta U+W
SciTegic.value.DoubleValue
-2.289

@<SCITEGIC>MOL_PROPERTY
U+W
SciTegic.value.DoubleValue
4.134

@<SCITEGIC>MOL_PROPERTY
Grad RMS
SciTegic.value.DoubleValue
0.000000

@<SCITEGIC>MOL_PROPERTY
U
SciTegic.value.DoubleValue
6.373

@<SCITEGIC>MOL_PROPERTY
W
SciTegic.value.DoubleValue
-2.240

@<SCITEGIC>MOL_PROPERTY
W(PB)
SciTegic.value.DoubleValue
-4.254

@<SCITEGIC>MOL_PROPERTY
W(SA)
SciTegic.value.DoubleValue
2.015

@<SCITEGIC>MOL_PROPERTY
Valence
SciTegic.value.DoubleValue
12.093

@<SCITEGIC>MOL_PROPERTY
Coulomb
SciTegic.value.DoubleValue
-8.058

@<SCITEGIC>MOL_PROPERTY
VdW
SciTegic.value.DoubleValue
2.339

@<SCITEGIC>MOL_PROPERTY
VdW6
SciTegic.value.DoubleValue
-9.683

@<SCITEGIC>MOL_PROPERTY
VdW12
SciTegic.value.DoubleValue
12.022

@<SCITEGIC>MOL_PROPERTY
Bond
SciTegic.value.DoubleValue
0.268

@<SCITEGIC>MOL_PROPERTY
Angle
SciTegic.value.DoubleValue
3.005

@<SCITEGIC>MOL_PROPERTY
Pdih
SciTegic.value.DoubleValue
8.820

@<SCITEGIC>MOL_PROPERTY
Idih
SciTegic.value.DoubleValue
0.000

@<SCITEGIC>MOL_PROPERTY
Tether
SciTegic.value.DoubleValue
0.000

@<TRIPOS>MOLECULE
guest-5_confgen4.mol2 : confsearch ligand conformer 229
          22          22           1
SMALL
USER_CHARGES
 
@<TRIPOS>ATOM
       1    C1      21.606059   19.550535   23.806777 C.3        1 MOL1        -0.1685
       2    H1      22.465809   18.873267   23.712473 H          1 MOL1         0.0832
       3    H2      21.840744   20.214272   24.650084 H          1 MOL1         0.0832
       4    C2      20.361014   18.704967   24.166228 C.3        1 MOL1        -0.1685
       5    H3      20.412394   17.738745   23.646369 H          1 MOL1         0.0832
       6    H4      20.411540   18.464906   25.237030 H          1 MOL1         0.0832
       7    C3      19.001992   19.379280   23.866430 C.3        1 MOL1        -0.1685
       8    H5      19.041974   20.456273   24.079284 H          1 MOL1         0.0832
       9    H6      18.255114   18.960061   24.554074 H          1 MOL1         0.0832
      10    C4      18.511468   19.117844   22.419935 C.3        1 MOL1        -0.1761
      11    H7      18.565257   18.041439   22.211719 H          1 MOL1         0.0832
      12    H8      17.445538   19.372990   22.359311 H          1 MOL1         0.0832
      13    C5      19.258348   19.876293   21.298925 C.3        1 MOL1         0.1218
      14    H9      18.913363   19.452817   20.344591 H          1 MOL1         0.0789
      15    C6      20.801197   19.737660   21.325965 C.3        1 MOL1        -0.1761
      16    H10     21.083096   18.678255   21.274181 H          1 MOL1         0.0832
      17    H11     21.184035   20.195165   20.404578 H          1 MOL1         0.0832
      18    C7      21.503570   20.418231   22.529682 C.3        1 MOL1        -0.1685
      19    H12     22.522146   20.699624   22.230454 H          1 MOL1         0.0832
      20    H13     21.000310   21.364230   22.769343 H          1 MOL1         0.0832
      21    O1      18.889899   21.251788   21.332853 O.3        1 MOL1        -0.5509
      22    H14     17.911471   21.281174   21.331204 H          1 MOL1         0.3779
@<TRIPOS>BOND
    1     1     2    1
    2     1     3    1
    3     1     4    1
    4     4     5    1
    5     4     6    1
    6     4     7    1
    7     7     8    1
    8     7     9    1
    9     7    10    1
   10    10    11    1
   11    10    12    1
   12    10    13    1
   13    13    14    1
   14    13    15    1
   15    15    16    1
   16    15    17    1
   17     1    18    1
   18    15    18    1
   19    18    19    1
   20    18    20    1
   21    13    21    1
   22    21    22    1
@<TRIPOS>SUBSTRUCTURE
       1 MOL1            1 RESIDUE      1      MOL     
@<SCITEGIC>MOL_PROPERTY
VConf Rank
SciTegic.value.IntegerValue
229

@<SCITEGIC>MOL_PROPERTY
Conf_Id
SciTegic.value.IntegerValue
41

@<SCITEGIC>MOL_PROPERTY
Delta U+W
SciTegic.value.DoubleValue
-2.114

@<SCITEGIC>MOL_PROPERTY
U+W
SciTegic.value.DoubleValue
4.310

@<SCITEGIC>MOL_PROPERTY
Grad RMS
SciTegic.value.DoubleValue
0.000000

@<SCITEGIC>MOL_PROPERTY
U
SciTegic.value.DoubleValue
6.598

@<SCITEGIC>MOL_PROPERTY
W
SciTegic.value.DoubleValue
-2.289

@<SCITEGIC>MOL_PROPERTY
W(PB)
SciTegic.value.DoubleValue
-4.294

@<SCITEGIC>MOL_PROPERTY
W(SA)
SciTegic.value.DoubleValue
2.005

@<SCITEGIC>MOL_PROPERTY
Valence
SciTegic.value.DoubleValue
12.082

@<SCITEGIC>MOL_PROPERTY
Coulomb
SciTegic.value.DoubleValue
-7.801

@<SCITEGIC>MOL_PROPERTY
VdW
SciTegic.value.DoubleValue
2.317

@<SCITEGIC>MOL_PROPERTY
VdW6
SciTegic.value.DoubleValue
-9.658

@<SCITEGIC>MOL_PROPERTY
VdW12
SciTegic.value.DoubleValue
11.975

@<SCITEGIC>MOL_PROPERTY
Bond
SciTegic.value.DoubleValue
0.267

@<SCITEGIC>MOL_PROPERTY
Angle
SciTegic.value.DoubleValue
3.051

@<SCITEGIC>MOL_PROPERTY
Pdih
SciTegic.value.DoubleValue
8.764

@<SCITEGIC>MOL_PROPERTY
Idih
SciTegic.value.DoubleValue
0.000

@<SCITEGIC>MOL_PROPERTY
Tether
SciTegic.value.DoubleValue
0.000

@<TRIPOS>MOLECULE
guest-5_confgen4.mol2 : confsearch ligand conformer 230
          22          22           1
SMALL
USER_CHARGES
 
@<TRIPOS>ATOM
       1    C1      21.641415   19.484288   23.309393 C.3        1 MOL1        -0.1685
       2    H1      22.681776   19.688294   23.596758 H          1 MOL1         0.0832
       3    H2      21.296379   18.668979   23.960084 H          1 MOL1         0.0832
       4    C2      21.636846   19.041272   21.829156 C.3        1 MOL1        -0.1685
       5    H3      21.924517   19.887961   21.191234 H          1 MOL1         0.0832
       6    H4      22.416009   18.279910   21.688468 H          1 MOL1         0.0832
       7    C3      20.295110   18.456895   21.335730 C.3        1 MOL1        -0.1685
       8    H5      20.113058   17.492768   21.828889 H          1 MOL1         0.0832
       9    H6      20.399449   18.225434   20.267242 H          1 MOL1         0.0832
      10    C4      19.064404   19.386417   21.516104 C.3        1 MOL1        -0.1761
      11    H7      19.274480   20.376256   21.091433 H          1 MOL1         0.0832
      12    H8      18.245213   18.973370   20.913690 H          1 MOL1         0.0832
      13    C5      18.534229   19.537356   22.965299 C.3        1 MOL1         0.1218
      14    H9      17.513994   19.940264   22.887426 H          1 MOL1         0.0789
      15    C6      19.317675   20.520353   23.873631 C.3        1 MOL1        -0.1761
      16    H10     18.808900   21.492458   23.838680 H          1 MOL1         0.0832
      17    H11     19.233033   20.188335   24.916737 H          1 MOL1         0.0832
      18    C7      20.812746   20.765177   23.551567 C.3        1 MOL1        -0.1685
      19    H12     20.902994   21.435509   22.686163 H          1 MOL1         0.0832
      20    H13     21.252507   21.313581   24.395689 H          1 MOL1         0.0832
      21    O1      18.447393   18.264019   23.599328 O.3        1 MOL1        -0.5509
      22    H14     18.071759   18.416735   24.490106 H          1 MOL1         0.3779
@<TRIPOS>BOND
    1     1     2    1
    2     1     3    1
    3     1     4    1
    4     4     5    1
    5     4     6    1
    6     4     7    1
    7     7     8    1
    8     7     9    1
    9     7    10    1
   10    10    11    1
   11    10    12    1
   12    10    13    1
   13    13    14    1
   14    13    15    1
   15    15    16    1
   16    15    17    1
   17     1    18    1
   18    15    18    1
   19    18    19    1
   20    18    20    1
   21    13    21    1
   22    21    22    1
@<TRIPOS>SUBSTRUCTURE
       1 MOL1            1 RESIDUE      1      MOL     
@<SCITEGIC>MOL_PROPERTY
VConf Rank
SciTegic.value.IntegerValue
230

@<SCITEGIC>MOL_PROPERTY
Conf_Id
SciTegic.value.IntegerValue
104

@<SCITEGIC>MOL_PROPERTY
Delta U+W
SciTegic.value.DoubleValue
-1.172

@<SCITEGIC>MOL_PROPERTY
U+W
SciTegic.value.DoubleValue
5.252

@<SCITEGIC>MOL_PROPERTY
Grad RMS
SciTegic.value.DoubleValue
0.000000

@<SCITEGIC>MOL_PROPERTY
U
SciTegic.value.DoubleValue
7.482

@<SCITEGIC>MOL_PROPERTY
W
SciTegic.value.DoubleValue
-2.230

@<SCITEGIC>MOL_PROPERTY
W(PB)
SciTegic.value.DoubleValue
-4.220

@<SCITEGIC>MOL_PROPERTY
W(SA)
SciTegic.value.DoubleValue
1.990

@<SCITEGIC>MOL_PROPERTY
Valence
SciTegic.value.DoubleValue
12.309

@<SCITEGIC>MOL_PROPERTY
Coulomb
SciTegic.value.DoubleValue
-7.084

@<SCITEGIC>MOL_PROPERTY
VdW
SciTegic.value.DoubleValue
2.258

@<SCITEGIC>MOL_PROPERTY
VdW6
SciTegic.value.DoubleValue
-9.770

@<SCITEGIC>MOL_PROPERTY
VdW12
SciTegic.value.DoubleValue
12.028

@<SCITEGIC>MOL_PROPERTY
Bond
SciTegic.value.DoubleValue
0.284

@<SCITEGIC>MOL_PROPERTY
Angle
SciTegic.value.DoubleValue
3.491

@<SCITEGIC>MOL_PROPERTY
Pdih
SciTegic.value.DoubleValue
8.535

@<SCITEGIC>MOL_PROPERTY
Idih
SciTegic.value.DoubleValue
0.000

@<SCITEGIC>MOL_PROPERTY
Tether
SciTegic.value.DoubleValue
0.000

@<TRIPOS>MOLECULE
guest-5_confgen4.mol2 : confsearch ligand conformer 231
          22          22           1
SMALL
USER_CHARGES
 
@<TRIPOS>ATOM
       1    C1      21.002119   18.289275   22.295069 C.3        1 MOL1        -0.1685
       2    H1      21.240188   18.669720   21.292539 H          1 MOL1         0.0832
       3    H2      21.505937   17.316410   22.376558 H          1 MOL1         0.0832
       4    C2      19.482782   18.049114   22.448113 C.3        1 MOL1        -0.1685
       5    H3      19.228637   17.094958   21.966194 H          1 MOL1         0.0832
       6    H4      19.242689   17.903840   23.509521 H          1 MOL1         0.0832
       7    C3      18.565856   19.142231   21.843120 C.3        1 MOL1        -0.1685
       8    H5      17.603915   19.122080   22.373761 H          1 MOL1         0.0832
       9    H6      18.332085   18.864727   20.806167 H          1 MOL1         0.0832
      10    C4      19.108342   20.597102   21.826910 C.3        1 MOL1        -0.1761
      11    H7      19.812506   20.708219   20.992187 H          1 MOL1         0.0832
      12    H8      18.272431   21.267752   21.589248 H          1 MOL1         0.0832
      13    C5      19.784508   21.111248   23.118588 C.3        1 MOL1         0.1218
      14    H9      19.745425   22.209749   23.093139 H          1 MOL1         0.0789
      15    C6      21.276484   20.719372   23.211919 C.3        1 MOL1        -0.1761
      16    H10     21.792570   21.084030   22.314288 H          1 MOL1         0.0832
      17    H11     21.722268   21.267513   24.052194 H          1 MOL1         0.0832
      18    C7      21.585658   19.212363   23.391158 C.3        1 MOL1        -0.1685
      19    H12     22.677484   19.091632   23.398323 H          1 MOL1         0.0832
      20    H13     21.245427   18.877453   24.380378 H          1 MOL1         0.0832
      21    O1      19.085141   20.651152   24.264611 O.3        1 MOL1        -0.5509
      22    H14     19.091258   19.677585   24.172874 H          1 MOL1         0.3779
@<TRIPOS>BOND
    1     1     2    1
    2     1     3    1
    3     1     4    1
    4     4     5    1
    5     4     6    1
    6     4     7    1
    7     7     8    1
    8     7     9    1
    9     7    10    1
   10    10    11    1
   11    10    12    1
   12    10    13    1
   13    13    14    1
   14    13    15    1
   15    15    16    1
   16    15    17    1
   17     1    18    1
   18    15    18    1
   19    18    19    1
   20    18    20    1
   21    13    21    1
   22    21    22    1
@<TRIPOS>SUBSTRUCTURE
       1 MOL1            1 RESIDUE      1      MOL     
@<SCITEGIC>MOL_PROPERTY
VConf Rank
SciTegic.value.IntegerValue
231

@<SCITEGIC>MOL_PROPERTY
Conf_Id
SciTegic.value.IntegerValue
99

@<SCITEGIC>MOL_PROPERTY
Delta U+W
SciTegic.value.DoubleValue
-3.852

@<SCITEGIC>MOL_PROPERTY
U+W
SciTegic.value.DoubleValue
2.572

@<SCITEGIC>MOL_PROPERTY
Grad RMS
SciTegic.value.DoubleValue
0.000000

@<SCITEGIC>MOL_PROPERTY
U
SciTegic.value.DoubleValue
3.922

@<SCITEGIC>MOL_PROPERTY
W
SciTegic.value.DoubleValue
-1.350

@<SCITEGIC>MOL_PROPERTY
W(PB)
SciTegic.value.DoubleValue
-3.345

@<SCITEGIC>MOL_PROPERTY
W(SA)
SciTegic.value.DoubleValue
1.995

@<SCITEGIC>MOL_PROPERTY
Valence
SciTegic.value.DoubleValue
12.571

@<SCITEGIC>MOL_PROPERTY
Coulomb
SciTegic.value.DoubleValue
-10.581

@<SCITEGIC>MOL_PROPERTY
VdW
SciTegic.value.DoubleValue
1.932

@<SCITEGIC>MOL_PROPERTY
VdW6
SciTegic.value.DoubleValue
-10.483

@<SCITEGIC>MOL_PROPERTY
VdW12
SciTegic.value.DoubleValue
12.415

@<SCITEGIC>MOL_PROPERTY
Bond
SciTegic.value.DoubleValue
0.268

@<SCITEGIC>MOL_PROPERTY
Angle
SciTegic.value.DoubleValue
3.728

@<SCITEGIC>MOL_PROPERTY
Pdih
SciTegic.value.DoubleValue
8.575

@<SCITEGIC>MOL_PROPERTY
Idih
SciTegic.value.DoubleValue
0.000

@<SCITEGIC>MOL_PROPERTY
Tether
SciTegic.value.DoubleValue
0.000

@<TRIPOS>MOLECULE
guest-5_confgen4.mol2 : confsearch ligand conformer 232
          22          22           1
SMALL
USER_CHARGES
 
@<TRIPOS>ATOM
       1    C1      20.117535   18.770377   24.126801 C.3        1 MOL1        -0.1685
       2    H1      20.660535   18.318105   24.968164 H          1 MOL1         0.0832
       3    H2      19.055403   18.618056   24.360741 H          1 MOL1         0.0832
       4    C2      20.500059   17.988338   22.836087 C.3        1 MOL1        -0.1685
       5    H3      21.208500   17.197473   23.118816 H          1 MOL1         0.0832
       6    H4      19.623844   17.455983   22.442514 H          1 MOL1         0.0832
       7    C3      21.151572   18.823333   21.704246 C.3        1 MOL1        -0.1685
       8    H5      21.544492   18.132230   20.946145 H          1 MOL1         0.0832
       9    H6      22.037906   19.342134   22.090026 H          1 MOL1         0.0832
      10    C4      20.221027   19.838862   20.984790 C.3        1 MOL1        -0.1761
      11    H7      20.849173   20.608149   20.517488 H          1 MOL1         0.0832
      12    H8      19.724578   19.324144   20.151364 H          1 MOL1         0.0832
      13    C5      19.122527   20.543183   21.818689 C.3        1 MOL1         0.1218
      14    H9      18.734410   21.367928   21.203925 H          1 MOL1         0.0789
      15    C6      19.574383   21.159961   23.165372 C.3        1 MOL1        -0.1761
      16    H10     20.125898   22.085520   22.955822 H          1 MOL1         0.0832
      17    H11     18.671102   21.476185   23.703965 H          1 MOL1         0.0832
      18    C7      20.435195   20.287549   24.120725 C.3        1 MOL1        -0.1685
      19    H12     21.499700   20.442168   23.905112 H          1 MOL1         0.0832
      20    H13     20.301246   20.673611   25.140401 H          1 MOL1         0.0832
      21    O1      18.046505   19.645956   22.043199 O.3        1 MOL1        -0.5509
      22    H14     18.440281   18.936656   22.589794 H          1 MOL1         0.3779
@<TRIPOS>BOND
    1     1     2    1
    2     1     3    1
    3     1     4    1
    4     4     5    1
    5     4     6    1
    6     4     7    1
    7     7     8    1
    8     7     9    1
    9     7    10    1
   10    10    11    1
   11    10    12    1
   12    10    13    1
   13    13    14    1
   14    13    15    1
   15    15    16    1
   16    15    17    1
   17     1    18    1
   18    15    18    1
   19    18    19    1
   20    18    20    1
   21    13    21    1
   22    21    22    1
@<TRIPOS>SUBSTRUCTURE
       1 MOL1            1 RESIDUE      1      MOL     
@<SCITEGIC>MOL_PROPERTY
VConf Rank
SciTegic.value.IntegerValue
232

@<SCITEGIC>MOL_PROPERTY
Conf_Id
SciTegic.value.IntegerValue
98

@<SCITEGIC>MOL_PROPERTY
Delta U+W
SciTegic.value.DoubleValue
0.930

@<SCITEGIC>MOL_PROPERTY
U+W
SciTegic.value.DoubleValue
7.353

@<SCITEGIC>MOL_PROPERTY
Grad RMS
SciTegic.value.DoubleValue
0.000000

@<SCITEGIC>MOL_PROPERTY
U
SciTegic.value.DoubleValue
8.455

@<SCITEGIC>MOL_PROPERTY
W
SciTegic.value.DoubleValue
-1.102

@<SCITEGIC>MOL_PROPERTY
W(PB)
SciTegic.value.DoubleValue
-3.101

@<SCITEGIC>MOL_PROPERTY
W(SA)
SciTegic.value.DoubleValue
2.000

@<SCITEGIC>MOL_PROPERTY
Valence
SciTegic.value.DoubleValue
15.601

@<SCITEGIC>MOL_PROPERTY
Coulomb
SciTegic.value.DoubleValue
-10.573

@<SCITEGIC>MOL_PROPERTY
VdW
SciTegic.value.DoubleValue
3.427

@<SCITEGIC>MOL_PROPERTY
VdW6
SciTegic.value.DoubleValue
-11.360

@<SCITEGIC>MOL_PROPERTY
VdW12
SciTegic.value.DoubleValue
14.787

@<SCITEGIC>MOL_PROPERTY
Bond
SciTegic.value.DoubleValue
0.471

@<SCITEGIC>MOL_PROPERTY
Angle
SciTegic.value.DoubleValue
5.445

@<SCITEGIC>MOL_PROPERTY
Pdih
SciTegic.value.DoubleValue
9.685

@<SCITEGIC>MOL_PROPERTY
Idih
SciTegic.value.DoubleValue
0.000

@<SCITEGIC>MOL_PROPERTY
Tether
SciTegic.value.DoubleValue
0.000

@<TRIPOS>MOLECULE
guest-5_confgen4.mol2 : confsearch ligand conformer 233
          22          22           1
SMALL
USER_CHARGES
 
@<TRIPOS>ATOM
       1    C1      18.475761   19.657293   21.901641 C.3        1 MOL1        -0.1685
       2    H1      18.556817   18.585624   21.678628 H          1 MOL1         0.0832
       3    H2      17.483763   19.951122   21.532430 H          1 MOL1         0.0832
       4    C2      19.550331   20.440810   21.105676 C.3        1 MOL1        -0.1685
       5    H3      19.379424   20.244885   20.038306 H          1 MOL1         0.0832
       6    H4      19.392744   21.519708   21.238977 H          1 MOL1         0.0832
       7    C3      21.030839   20.097238   21.429247 C.3        1 MOL1        -0.1685
       8    H5      21.471025   20.882953   22.056864 H          1 MOL1         0.0832
       9    H6      21.602841   20.130500   20.492048 H          1 MOL1         0.0832
      10    C4      21.253486   18.715198   22.098653 C.3        1 MOL1        -0.1761
      11    H7      20.756779   17.941301   21.500329 H          1 MOL1         0.0832
      12    H8      22.323123   18.472401   22.041085 H          1 MOL1         0.0832
      13    C5      20.788127   18.593856   23.579392 C.3        1 MOL1         0.1218
      14    H9      20.228776   17.652836   23.682711 H          1 MOL1         0.0789
      15    C6      19.896177   19.746271   24.105341 C.3        1 MOL1        -0.1761
      16    H10     19.738015   19.609890   25.183043 H          1 MOL1         0.0832
      17    H11     20.431913   20.698767   24.014089 H          1 MOL1         0.0832
      18    C7      18.505758   19.869586   23.433526 C.3        1 MOL1        -0.1685
      19    H12     17.823310   19.141421   23.892716 H          1 MOL1         0.0832
      20    H13     18.092175   20.859793   23.668283 H          1 MOL1         0.0832
      21    O1      21.941554   18.534023   24.410777 O.3        1 MOL1        -0.5509
      22    H14     21.622517   18.400327   25.327576 H          1 MOL1         0.3779
@<TRIPOS>BOND
    1     1     2    1
    2     1     3    1
    3     1     4    1
    4     4     5    1
    5     4     6    1
    6     4     7    1
    7     7     8    1
    8     7     9    1
    9     7    10    1
   10    10    11    1
   11    10    12    1
   12    10    13    1
   13    13    14    1
   14    13    15    1
   15    15    16    1
   16    15    17    1
   17     1    18    1
   18    15    18    1
   19    18    19    1
   20    18    20    1
   21    13    21    1
   22    21    22    1
@<TRIPOS>SUBSTRUCTURE
       1 MOL1            1 RESIDUE      1      MOL     
@<SCITEGIC>MOL_PROPERTY
VConf Rank
SciTegic.value.IntegerValue
233

@<SCITEGIC>MOL_PROPERTY
Conf_Id
SciTegic.value.IntegerValue
141

@<SCITEGIC>MOL_PROPERTY
Delta U+W
SciTegic.value.DoubleValue
0.000

@<SCITEGIC>MOL_PROPERTY
U+W
SciTegic.value.DoubleValue
6.423

@<SCITEGIC>MOL_PROPERTY
Grad RMS
SciTegic.value.DoubleValue
0.000000

@<SCITEGIC>MOL_PROPERTY
U
SciTegic.value.DoubleValue
8.781

@<SCITEGIC>MOL_PROPERTY
W
SciTegic.value.DoubleValue
-2.358

@<SCITEGIC>MOL_PROPERTY
W(PB)
SciTegic.value.DoubleValue
-4.373

@<SCITEGIC>MOL_PROPERTY
W(SA)
SciTegic.value.DoubleValue
2.015

@<SCITEGIC>MOL_PROPERTY
Valence
SciTegic.value.DoubleValue
13.328

@<SCITEGIC>MOL_PROPERTY
Coulomb
SciTegic.value.DoubleValue
-8.387

@<SCITEGIC>MOL_PROPERTY
VdW
SciTegic.value.DoubleValue
3.840

@<SCITEGIC>MOL_PROPERTY
VdW6
SciTegic.value.DoubleValue
-9.744

@<SCITEGIC>MOL_PROPERTY
VdW12
SciTegic.value.DoubleValue
13.584

@<SCITEGIC>MOL_PROPERTY
Bond
SciTegic.value.DoubleValue
0.436

@<SCITEGIC>MOL_PROPERTY
Angle
SciTegic.value.DoubleValue
3.478

@<SCITEGIC>MOL_PROPERTY
Pdih
SciTegic.value.DoubleValue
9.415

@<SCITEGIC>MOL_PROPERTY
Idih
SciTegic.value.DoubleValue
0.000

@<SCITEGIC>MOL_PROPERTY
Tether
SciTegic.value.DoubleValue
0.000

@<TRIPOS>MOLECULE
guest-5_confgen4.mol2 : confsearch ligand conformer 234
          22          22           1
SMALL
USER_CHARGES
 
@<TRIPOS>ATOM
       1    C1      19.053436   19.397211   24.123709 C.3        1 MOL1        -0.1685
       2    H1      19.994852   19.274318   24.676197 H          1 MOL1         0.0832
       3    H2      18.252749   19.353772   24.874654 H          1 MOL1         0.0832
       4    C2      18.834556   18.226137   23.135613 C.3        1 MOL1        -0.1685
       5    H3      18.646057   17.311165   23.713670 H          1 MOL1         0.0832
       6    H4      17.919563   18.405934   22.554803 H          1 MOL1         0.0832
       7    C3      20.008713   17.951745   22.167939 C.3        1 MOL1        -0.1685
       8    H5      19.705647   17.150339   21.480388 H          1 MOL1         0.0832
       9    H6      20.862454   17.554169   22.733641 H          1 MOL1         0.0832
      10    C4      20.466941   19.172320   21.332832 C.3        1 MOL1        -0.1761
      11    H7      21.128251   18.801698   20.538606 H          1 MOL1         0.0832
      12    H8      19.611748   19.637700   20.825819 H          1 MOL1         0.0832
      13    C5      21.231542   20.218158   22.174993 C.3        1 MOL1         0.1218
      14    H9      21.786478   19.687335   22.961833 H          1 MOL1         0.0789
      15    C6      20.333595   21.281276   22.847873 C.3        1 MOL1        -0.1761
      16    H10     20.918918   21.749824   23.649564 H          1 MOL1         0.0832
      17    H11     20.115593   22.081274   22.127742 H          1 MOL1         0.0832
      18    C7      18.991117   20.782394   23.438562 C.3        1 MOL1        -0.1685
      19    H12     18.644281   21.526291   24.168731 H          1 MOL1         0.0832
      20    H13     18.226395   20.765728   22.650126 H          1 MOL1         0.0832
      21    O1      22.159899   20.893162   21.334909 O.3        1 MOL1        -0.5509
      22    H14     22.766276   20.210558   20.978570 H          1 MOL1         0.3779
@<TRIPOS>BOND
    1     1     2    1
    2     1     3    1
    3     1     4    1
    4     4     5    1
    5     4     6    1
    6     4     7    1
    7     7     8    1
    8     7     9    1
    9     7    10    1
   10    10    11    1
   11    10    12    1
   12    10    13    1
   13    13    14    1
   14    13    15    1
   15    15    16    1
   16    15    17    1
   17     1    18    1
   18    15    18    1
   19    18    19    1
   20    18    20    1
   21    13    21    1
   22    21    22    1
@<TRIPOS>SUBSTRUCTURE
       1 MOL1            1 RESIDUE      1      MOL     
@<SCITEGIC>MOL_PROPERTY
VConf Rank
SciTegic.value.IntegerValue
234

@<SCITEGIC>MOL_PROPERTY
Conf_Id
SciTegic.value.IntegerValue
144

@<SCITEGIC>MOL_PROPERTY
Delta U+W
SciTegic.value.DoubleValue
-3.291

@<SCITEGIC>MOL_PROPERTY
U+W
SciTegic.value.DoubleValue
3.132

@<SCITEGIC>MOL_PROPERTY
Grad RMS
SciTegic.value.DoubleValue
0.000000

@<SCITEGIC>MOL_PROPERTY
U
SciTegic.value.DoubleValue
5.411

@<SCITEGIC>MOL_PROPERTY
W
SciTegic.value.DoubleValue
-2.279

@<SCITEGIC>MOL_PROPERTY
W(PB)
SciTegic.value.DoubleValue
-4.300

@<SCITEGIC>MOL_PROPERTY
W(SA)
SciTegic.value.DoubleValue
2.021

@<SCITEGIC>MOL_PROPERTY
Valence
SciTegic.value.DoubleValue
11.909

@<SCITEGIC>MOL_PROPERTY
Coulomb
SciTegic.value.DoubleValue
-8.733

@<SCITEGIC>MOL_PROPERTY
VdW
SciTegic.value.DoubleValue
2.236

@<SCITEGIC>MOL_PROPERTY
VdW6
SciTegic.value.DoubleValue
-8.936

@<SCITEGIC>MOL_PROPERTY
VdW12
SciTegic.value.DoubleValue
11.172

@<SCITEGIC>MOL_PROPERTY
Bond
SciTegic.value.DoubleValue
0.223

@<SCITEGIC>MOL_PROPERTY
Angle
SciTegic.value.DoubleValue
2.457

@<SCITEGIC>MOL_PROPERTY
Pdih
SciTegic.value.DoubleValue
9.228

@<SCITEGIC>MOL_PROPERTY
Idih
SciTegic.value.DoubleValue
0.000

@<SCITEGIC>MOL_PROPERTY
Tether
SciTegic.value.DoubleValue
0.000

@<TRIPOS>MOLECULE
guest-5_confgen4.mol2 : confsearch ligand conformer 235
          22          22           1
SMALL
USER_CHARGES
 
@<TRIPOS>ATOM
       1    C1      19.582809   19.691437   20.963229 C.3        1 MOL1        -0.1685
       2    H1      19.166411   19.561677   19.954931 H          1 MOL1         0.0832
       3    H2      20.317466   20.504483   20.886303 H          1 MOL1         0.0832
       4    C2      20.267949   18.366450   21.371968 C.3        1 MOL1        -0.1685
       5    H3      19.512423   17.667468   21.755867 H          1 MOL1         0.0832
       6    H4      20.680043   17.887484   20.473208 H          1 MOL1         0.0832
       7    C3      21.413499   18.510664   22.402910 C.3        1 MOL1        -0.1685
       8    H5      22.339530   18.773970   21.873709 H          1 MOL1         0.0832
       9    H6      21.596515   17.524566   22.851390 H          1 MOL1         0.0832
      10    C4      21.193488   19.545640   23.533643 C.3        1 MOL1        -0.1761
      11    H7      21.895106   19.310445   24.345360 H          1 MOL1         0.0832
      12    H8      21.480231   20.541436   23.171616 H          1 MOL1         0.0832
      13    C5      19.755075   19.600952   24.095340 C.3        1 MOL1         0.1218
      14    H9      19.314873   18.593747   24.080223 H          1 MOL1         0.0789
      15    C6      18.848759   20.574859   23.308527 C.3        1 MOL1        -0.1761
      16    H10     17.939333   20.760835   23.895458 H          1 MOL1         0.0832
      17    H11     19.351349   21.546037   23.212080 H          1 MOL1         0.0832
      18    C7      18.419604   20.084349   21.905337 C.3        1 MOL1        -0.1685
      19    H12     17.732801   19.233491   22.011478 H          1 MOL1         0.0832
      20    H13     17.835565   20.882257   21.426766 H          1 MOL1         0.0832
      21    O1      19.818025   20.054302   25.440971 O.3        1 MOL1        -0.5509
      22    H14     20.215219   20.949076   25.413115 H          1 MOL1         0.3779
@<TRIPOS>BOND
    1     1     2    1
    2     1     3    1
    3     1     4    1
    4     4     5    1
    5     4     6    1
    6     4     7    1
    7     7     8    1
    8     7     9    1
    9     7    10    1
   10    10    11    1
   11    10    12    1
   12    10    13    1
   13    13    14    1
   14    13    15    1
   15    15    16    1
   16    15    17    1
   17     1    18    1
   18    15    18    1
   19    18    19    1
   20    18    20    1
   21    13    21    1
   22    21    22    1
@<TRIPOS>SUBSTRUCTURE
       1 MOL1            1 RESIDUE      1      MOL     
@<SCITEGIC>MOL_PROPERTY
VConf Rank
SciTegic.value.IntegerValue
235

@<SCITEGIC>MOL_PROPERTY
Conf_Id
SciTegic.value.IntegerValue
76

@<SCITEGIC>MOL_PROPERTY
Delta U+W
SciTegic.value.DoubleValue
-3.175

@<SCITEGIC>MOL_PROPERTY
U+W
SciTegic.value.DoubleValue
3.248

@<SCITEGIC>MOL_PROPERTY
Grad RMS
SciTegic.value.DoubleValue
0.000000

@<SCITEGIC>MOL_PROPERTY
U
SciTegic.value.DoubleValue
5.336

@<SCITEGIC>MOL_PROPERTY
W
SciTegic.value.DoubleValue
-2.088

@<SCITEGIC>MOL_PROPERTY
W(PB)
SciTegic.value.DoubleValue
-4.098

@<SCITEGIC>MOL_PROPERTY
W(SA)
SciTegic.value.DoubleValue
2.010

@<SCITEGIC>MOL_PROPERTY
Valence
SciTegic.value.DoubleValue
12.390

@<SCITEGIC>MOL_PROPERTY
Coulomb
SciTegic.value.DoubleValue
-9.270

@<SCITEGIC>MOL_PROPERTY
VdW
SciTegic.value.DoubleValue
2.216

@<SCITEGIC>MOL_PROPERTY
VdW6
SciTegic.value.DoubleValue
-8.967

@<SCITEGIC>MOL_PROPERTY
VdW12
SciTegic.value.DoubleValue
11.183

@<SCITEGIC>MOL_PROPERTY
Bond
SciTegic.value.DoubleValue
0.218

@<SCITEGIC>MOL_PROPERTY
Angle
SciTegic.value.DoubleValue
2.426

@<SCITEGIC>MOL_PROPERTY
Pdih
SciTegic.value.DoubleValue
9.745

@<SCITEGIC>MOL_PROPERTY
Idih
SciTegic.value.DoubleValue
0.000

@<SCITEGIC>MOL_PROPERTY
Tether
SciTegic.value.DoubleValue
0.000

@<TRIPOS>MOLECULE
guest-5_confgen4.mol2 : confsearch ligand conformer 236
          22          22           1
SMALL
USER_CHARGES
 
@<TRIPOS>ATOM
       1    C1      18.890160   18.670802   23.846076 C.3        1 MOL1        -0.1685
       2    H1      19.000588   18.535738   24.930670 H          1 MOL1         0.0832
       3    H2      17.907157   18.251317   23.592002 H          1 MOL1         0.0832
       4    C2      19.987869   17.838984   23.140534 C.3        1 MOL1        -0.1685
       5    H3      20.910530   17.869748   23.735706 H          1 MOL1         0.0832
       6    H4      19.671321   16.787048   23.143881 H          1 MOL1         0.0832
       7    C3      20.298925   18.265201   21.686875 C.3        1 MOL1        -0.1685
       8    H5      19.383493   18.570042   21.161622 H          1 MOL1         0.0832
       9    H6      20.681139   17.387495   21.148512 H          1 MOL1         0.0832
      10    C4      21.377135   19.375521   21.604805 C.3        1 MOL1        -0.1761
      11    H7      22.250703   19.074580   22.197110 H          1 MOL1         0.0832
      12    H8      21.732757   19.442444   20.568239 H          1 MOL1         0.0832
      13    C5      20.937288   20.788960   22.049577 C.3        1 MOL1         0.1218
      14    H9      21.848537   21.401904   22.104543 H          1 MOL1         0.0789
      15    C6      20.255470   20.860391   23.439005 C.3        1 MOL1        -0.1761
      16    H10     20.923427   20.442280   24.203135 H          1 MOL1         0.0832
      17    H11     20.138828   21.921024   23.696376 H          1 MOL1         0.0832
      18    C7      18.862419   20.184209   23.525059 C.3        1 MOL1        -0.1685
      19    H12     18.274607   20.683843   24.306893 H          1 MOL1         0.0832
      20    H13     18.305610   20.348608   22.593192 H          1 MOL1         0.0832
      21    O1      20.084706   21.349935   21.056383 O.3        1 MOL1        -0.5509
      22    H14     19.789554   22.217733   21.400033 H          1 MOL1         0.3779
@<TRIPOS>BOND
    1     1     2    1
    2     1     3    1
    3     1     4    1
    4     4     5    1
    5     4     6    1
    6     4     7    1
    7     7     8    1
    8     7     9    1
    9     7    10    1
   10    10    11    1
   11    10    12    1
   12    10    13    1
   13    13    14    1
   14    13    15    1
   15    15    16    1
   16    15    17    1
   17     1    18    1
   18    15    18    1
   19    18    19    1
   20    18    20    1
   21    13    21    1
   22    21    22    1
@<TRIPOS>SUBSTRUCTURE
       1 MOL1            1 RESIDUE      1      MOL     
@<SCITEGIC>MOL_PROPERTY
VConf Rank
SciTegic.value.IntegerValue
236

@<SCITEGIC>MOL_PROPERTY
Conf_Id
SciTegic.value.IntegerValue
95

@<SCITEGIC>MOL_PROPERTY
Delta U+W
SciTegic.value.DoubleValue
-2.289

@<SCITEGIC>MOL_PROPERTY
U+W
SciTegic.value.DoubleValue
4.134

@<SCITEGIC>MOL_PROPERTY
Grad RMS
SciTegic.value.DoubleValue
0.000000

@<SCITEGIC>MOL_PROPERTY
U
SciTegic.value.DoubleValue
6.373

@<SCITEGIC>MOL_PROPERTY
W
SciTegic.value.DoubleValue
-2.240

@<SCITEGIC>MOL_PROPERTY
W(PB)
SciTegic.value.DoubleValue
-4.254

@<SCITEGIC>MOL_PROPERTY
W(SA)
SciTegic.value.DoubleValue
2.015

@<SCITEGIC>MOL_PROPERTY
Valence
SciTegic.value.DoubleValue
12.093

@<SCITEGIC>MOL_PROPERTY
Coulomb
SciTegic.value.DoubleValue
-8.058

@<SCITEGIC>MOL_PROPERTY
VdW
SciTegic.value.DoubleValue
2.339

@<SCITEGIC>MOL_PROPERTY
VdW6
SciTegic.value.DoubleValue
-9.683

@<SCITEGIC>MOL_PROPERTY
VdW12
SciTegic.value.DoubleValue
12.022

@<SCITEGIC>MOL_PROPERTY
Bond
SciTegic.value.DoubleValue
0.268

@<SCITEGIC>MOL_PROPERTY
Angle
SciTegic.value.DoubleValue
3.005

@<SCITEGIC>MOL_PROPERTY
Pdih
SciTegic.value.DoubleValue
8.820

@<SCITEGIC>MOL_PROPERTY
Idih
SciTegic.value.DoubleValue
0.000

@<SCITEGIC>MOL_PROPERTY
Tether
SciTegic.value.DoubleValue
0.000

@<TRIPOS>MOLECULE
guest-5_confgen4.mol2 : confsearch ligand conformer 237
          22          22           1
SMALL
USER_CHARGES
 
@<TRIPOS>ATOM
       1    C1      20.773130   21.126198   21.768720 C.3        1 MOL1        -0.1685
       2    H1      21.144711   22.070866   22.188582 H          1 MOL1         0.0832
       3    H2      20.941120   21.195196   20.685296 H          1 MOL1         0.0832
       4    C2      19.251164   21.043544   22.035395 C.3        1 MOL1        -0.1685
       5    H3      19.026543   21.488183   23.014333 H          1 MOL1         0.0832
       6    H4      18.742689   21.681669   21.299834 H          1 MOL1         0.0832
       7    C3      18.650012   19.620398   21.966183 C.3        1 MOL1        -0.1685
       8    H5      19.122872   19.032200   21.167906 H          1 MOL1         0.0832
       9    H6      17.590562   19.711566   21.691083 H          1 MOL1         0.0832
      10    C4      18.723263   18.874236   23.322349 C.3        1 MOL1        -0.1761
      11    H7      18.321398   19.523147   24.111219 H          1 MOL1         0.0832
      12    H8      18.047624   18.009917   23.284317 H          1 MOL1         0.0832
      13    C5      20.122867   18.379746   23.754004 C.3        1 MOL1         0.1218
      14    H9      20.031756   18.037772   24.795087 H          1 MOL1         0.0789
      15    C6      21.238139   19.454764   23.725076 C.3        1 MOL1        -0.1761
      16    H10     20.958313   20.302152   24.363920 H          1 MOL1         0.0832
      17    H11     22.128473   19.010841   24.188828 H          1 MOL1         0.0832
      18    C7      21.631582   19.959115   22.312181 C.3        1 MOL1        -0.1685
      19    H12     22.677826   20.292353   22.335513 H          1 MOL1         0.0832
      20    H13     21.609112   19.124986   21.598497 H          1 MOL1         0.0832
      21    O1      20.497668   17.264004   22.951796 O.3        1 MOL1        -0.5509
      22    H14     19.755511   16.626962   22.991372 H          1 MOL1         0.3779
@<TRIPOS>BOND
    1     1     2    1
    2     1     3    1
    3     1     4    1
    4     4     5    1
    5     4     6    1
    6     4     7    1
    7     7     8    1
    8     7     9    1
    9     7    10    1
   10    10    11    1
   11    10    12    1
   12    10    13    1
   13    13    14    1
   14    13    15    1
   15    15    16    1
   16    15    17    1
   17     1    18    1
   18    15    18    1
   19    18    19    1
   20    18    20    1
   21    13    21    1
   22    21    22    1
@<TRIPOS>SUBSTRUCTURE
       1 MOL1            1 RESIDUE      1      MOL     
@<SCITEGIC>MOL_PROPERTY
VConf Rank
SciTegic.value.IntegerValue
237

@<SCITEGIC>MOL_PROPERTY
Conf_Id
SciTegic.value.IntegerValue
41

@<SCITEGIC>MOL_PROPERTY
Delta U+W
SciTegic.value.DoubleValue
-2.114

@<SCITEGIC>MOL_PROPERTY
U+W
SciTegic.value.DoubleValue
4.310

@<SCITEGIC>MOL_PROPERTY
Grad RMS
SciTegic.value.DoubleValue
0.000000

@<SCITEGIC>MOL_PROPERTY
U
SciTegic.value.DoubleValue
6.598

@<SCITEGIC>MOL_PROPERTY
W
SciTegic.value.DoubleValue
-2.289

@<SCITEGIC>MOL_PROPERTY
W(PB)
SciTegic.value.DoubleValue
-4.294

@<SCITEGIC>MOL_PROPERTY
W(SA)
SciTegic.value.DoubleValue
2.005

@<SCITEGIC>MOL_PROPERTY
Valence
SciTegic.value.DoubleValue
12.082

@<SCITEGIC>MOL_PROPERTY
Coulomb
SciTegic.value.DoubleValue
-7.801

@<SCITEGIC>MOL_PROPERTY
VdW
SciTegic.value.DoubleValue
2.317

@<SCITEGIC>MOL_PROPERTY
VdW6
SciTegic.value.DoubleValue
-9.658

@<SCITEGIC>MOL_PROPERTY
VdW12
SciTegic.value.DoubleValue
11.975

@<SCITEGIC>MOL_PROPERTY
Bond
SciTegic.value.DoubleValue
0.267

@<SCITEGIC>MOL_PROPERTY
Angle
SciTegic.value.DoubleValue
3.051

@<SCITEGIC>MOL_PROPERTY
Pdih
SciTegic.value.DoubleValue
8.764

@<SCITEGIC>MOL_PROPERTY
Idih
SciTegic.value.DoubleValue
0.000

@<SCITEGIC>MOL_PROPERTY
Tether
SciTegic.value.DoubleValue
0.000

@<TRIPOS>MOLECULE
guest-5_confgen4.mol2 : confsearch ligand conformer 238
          22          22           1
SMALL
USER_CHARGES
 
@<TRIPOS>ATOM
       1    C1      18.915722   18.354008   22.792678 C.3        1 MOL1        -0.1685
       2    H1      18.098507   17.678220   23.079066 H          1 MOL1         0.0832
       3    H2      19.002070   18.286893   21.699419 H          1 MOL1         0.0832
       4    C2      20.207652   17.850984   23.474787 C.3        1 MOL1        -0.1685
       5    H3      20.125110   17.984335   24.561978 H          1 MOL1         0.0832
       6    H4      20.292734   16.768346   23.309819 H          1 MOL1         0.0832
       7    C3      21.504953   18.520317   22.970579 C.3        1 MOL1        -0.1685
       8    H5      21.697332   18.210349   21.934818 H          1 MOL1         0.0832
       9    H6      22.342391   18.119973   23.557560 H          1 MOL1         0.0832
      10    C4      21.531879   20.069365   23.075039 C.3        1 MOL1        -0.1761
      11    H7      21.263583   20.383070   24.091830 H          1 MOL1         0.0832
      12    H8      22.570095   20.394001   22.929085 H          1 MOL1         0.0832
      13    C5      20.664803   20.834621   22.042278 C.3        1 MOL1         0.1218
      14    H9      21.028822   21.872246   22.032162 H          1 MOL1         0.0789
      15    C6      19.148326   20.912914   22.357411 C.3        1 MOL1        -0.1761
      16    H10     18.957465   21.865199   22.869063 H          1 MOL1         0.0832
      17    H11     18.589731   20.975703   21.414278 H          1 MOL1         0.0832
      18    C7      18.532088   19.786773   23.223988 C.3        1 MOL1        -0.1685
      19    H12     18.796467   19.940809   24.278877 H          1 MOL1         0.0832
      20    H13     17.439189   19.886927   23.176880 H          1 MOL1         0.0832
      21    O1      20.856128   20.298127   20.735952 O.3        1 MOL1        -0.5509
      22    H14     20.318840   20.842450   20.125261 H          1 MOL1         0.3779
@<TRIPOS>BOND
    1     1     2    1
    2     1     3    1
    3     1     4    1
    4     4     5    1
    5     4     6    1
    6     4     7    1
    7     7     8    1
    8     7     9    1
    9     7    10    1
   10    10    11    1
   11    10    12    1
   12    10    13    1
   13    13    14    1
   14    13    15    1
   15    15    16    1
   16    15    17    1
   17     1    18    1
   18    15    18    1
   19    18    19    1
   20    18    20    1
   21    13    21    1
   22    21    22    1
@<TRIPOS>SUBSTRUCTURE
       1 MOL1            1 RESIDUE      1      MOL     
@<SCITEGIC>MOL_PROPERTY
VConf Rank
SciTegic.value.IntegerValue
238

@<SCITEGIC>MOL_PROPERTY
Conf_Id
SciTegic.value.IntegerValue
104

@<SCITEGIC>MOL_PROPERTY
Delta U+W
SciTegic.value.DoubleValue
-1.172

@<SCITEGIC>MOL_PROPERTY
U+W
SciTegic.value.DoubleValue
5.252

@<SCITEGIC>MOL_PROPERTY
Grad RMS
SciTegic.value.DoubleValue
0.000000

@<SCITEGIC>MOL_PROPERTY
U
SciTegic.value.DoubleValue
7.482

@<SCITEGIC>MOL_PROPERTY
W
SciTegic.value.DoubleValue
-2.230

@<SCITEGIC>MOL_PROPERTY
W(PB)
SciTegic.value.DoubleValue
-4.220

@<SCITEGIC>MOL_PROPERTY
W(SA)
SciTegic.value.DoubleValue
1.990

@<SCITEGIC>MOL_PROPERTY
Valence
SciTegic.value.DoubleValue
12.309

@<SCITEGIC>MOL_PROPERTY
Coulomb
SciTegic.value.DoubleValue
-7.084

@<SCITEGIC>MOL_PROPERTY
VdW
SciTegic.value.DoubleValue
2.258

@<SCITEGIC>MOL_PROPERTY
VdW6
SciTegic.value.DoubleValue
-9.770

@<SCITEGIC>MOL_PROPERTY
VdW12
SciTegic.value.DoubleValue
12.028

@<SCITEGIC>MOL_PROPERTY
Bond
SciTegic.value.DoubleValue
0.284

@<SCITEGIC>MOL_PROPERTY
Angle
SciTegic.value.DoubleValue
3.491

@<SCITEGIC>MOL_PROPERTY
Pdih
SciTegic.value.DoubleValue
8.535

@<SCITEGIC>MOL_PROPERTY
Idih
SciTegic.value.DoubleValue
0.000

@<SCITEGIC>MOL_PROPERTY
Tether
SciTegic.value.DoubleValue
0.000

@<TRIPOS>MOLECULE
guest-5_confgen4.mol2 : confsearch ligand conformer 239
          22          22           1
SMALL
USER_CHARGES
 
@<TRIPOS>ATOM
       1    C1      20.188360   21.222572   22.800490 C.3        1 MOL1        -0.1685
       2    H1      21.166119   21.252051   22.300886 H          1 MOL1         0.0832
       3    H2      19.956978   22.261331   23.073220 H          1 MOL1         0.0832
       4    C2      20.259429   20.395980   24.104782 C.3        1 MOL1        -0.1685
       5    H3      20.703711   21.020869   24.891786 H          1 MOL1         0.0832
       6    H4      19.241348   20.180254   24.454511 H          1 MOL1         0.0832
       7    C3      21.080310   19.083970   24.024407 C.3        1 MOL1        -0.1685
       8    H5      20.707904   18.393067   24.793355 H          1 MOL1         0.0832
       9    H6      22.117831   19.305296   24.309877 H          1 MOL1         0.0832
      10    C4      21.118024   18.350902   22.656054 C.3        1 MOL1        -0.1761
      11    H7      21.837210   18.855810   21.998183 H          1 MOL1         0.0832
      12    H8      21.533262   17.348098   22.820260 H          1 MOL1         0.0832
      13    C5      19.777377   18.198130   21.901529 C.3        1 MOL1         0.1218
      14    H9      19.889585   17.356875   21.202543 H          1 MOL1         0.0789
      15    C6      19.421410   19.439634   21.052869 C.3        1 MOL1        -0.1761
      16    H10     20.250882   19.643788   20.363407 H          1 MOL1         0.0832
      17    H11     18.564099   19.184562   20.416315 H          1 MOL1         0.0832
      18    C7      19.085069   20.735833   21.831030 C.3        1 MOL1        -0.1685
      19    H12     18.897015   21.530147   21.095902 H          1 MOL1         0.0832
      20    H13     18.139878   20.608485   22.375893 H          1 MOL1         0.0832
      21    O1      18.725155   17.907255   22.808387 O.3        1 MOL1        -0.5509
      22    H14     18.742753   18.652613   23.441172 H          1 MOL1         0.3779
@<TRIPOS>BOND
    1     1     2    1
    2     1     3    1
    3     1     4    1
    4     4     5    1
    5     4     6    1
    6     4     7    1
    7     7     8    1
    8     7     9    1
    9     7    10    1
   10    10    11    1
   11    10    12    1
   12    10    13    1
   13    13    14    1
   14    13    15    1
   15    15    16    1
   16    15    17    1
   17     1    18    1
   18    15    18    1
   19    18    19    1
   20    18    20    1
   21    13    21    1
   22    21    22    1
@<TRIPOS>SUBSTRUCTURE
       1 MOL1            1 RESIDUE      1      MOL     
@<SCITEGIC>MOL_PROPERTY
VConf Rank
SciTegic.value.IntegerValue
239

@<SCITEGIC>MOL_PROPERTY
Conf_Id
SciTegic.value.IntegerValue
99

@<SCITEGIC>MOL_PROPERTY
Delta U+W
SciTegic.value.DoubleValue
-3.852

@<SCITEGIC>MOL_PROPERTY
U+W
SciTegic.value.DoubleValue
2.572

@<SCITEGIC>MOL_PROPERTY
Grad RMS
SciTegic.value.DoubleValue
0.000000

@<SCITEGIC>MOL_PROPERTY
U
SciTegic.value.DoubleValue
3.922

@<SCITEGIC>MOL_PROPERTY
W
SciTegic.value.DoubleValue
-1.350

@<SCITEGIC>MOL_PROPERTY
W(PB)
SciTegic.value.DoubleValue
-3.345

@<SCITEGIC>MOL_PROPERTY
W(SA)
SciTegic.value.DoubleValue
1.995

@<SCITEGIC>MOL_PROPERTY
Valence
SciTegic.value.DoubleValue
12.571

@<SCITEGIC>MOL_PROPERTY
Coulomb
SciTegic.value.DoubleValue
-10.581

@<SCITEGIC>MOL_PROPERTY
VdW
SciTegic.value.DoubleValue
1.932

@<SCITEGIC>MOL_PROPERTY
VdW6
SciTegic.value.DoubleValue
-10.483

@<SCITEGIC>MOL_PROPERTY
VdW12
SciTegic.value.DoubleValue
12.415

@<SCITEGIC>MOL_PROPERTY
Bond
SciTegic.value.DoubleValue
0.268

@<SCITEGIC>MOL_PROPERTY
Angle
SciTegic.value.DoubleValue
3.728

@<SCITEGIC>MOL_PROPERTY
Pdih
SciTegic.value.DoubleValue
8.575

@<SCITEGIC>MOL_PROPERTY
Idih
SciTegic.value.DoubleValue
0.000

@<SCITEGIC>MOL_PROPERTY
Tether
SciTegic.value.DoubleValue
0.000

@<TRIPOS>MOLECULE
guest-5_confgen4.mol2 : confsearch ligand conformer 240
          22          22           1
SMALL
USER_CHARGES
 
@<TRIPOS>ATOM
       1    C1      18.590184   20.020165   23.303661 C.3        1 MOL1        -0.1685
       2    H1      17.606180   19.767152   23.722005 H          1 MOL1         0.0832
       3    H2      18.627417   21.117711   23.311576 H          1 MOL1         0.0832
       4    C2      18.636581   19.492387   21.839711 C.3        1 MOL1        -0.1685
       5    H3      17.672599   19.011082   21.624360 H          1 MOL1         0.0832
       6    H4      18.696519   20.333365   21.135994 H          1 MOL1         0.0832
       7    C3      19.756684   18.469055   21.522048 C.3        1 MOL1        -0.1685
       8    H5      19.560343   18.036944   20.531363 H          1 MOL1         0.0832
       9    H6      19.688123   17.618897   22.212047 H          1 MOL1         0.0832
      10    C4      21.207380   19.026099   21.518523 C.3        1 MOL1        -0.1761
      11    H7      21.897205   18.187303   21.677601 H          1 MOL1         0.0832
      12    H8      21.432840   19.399939   20.510849 H          1 MOL1         0.0832
      13    C5      21.562427   20.149862   22.523140 C.3        1 MOL1         0.1218
      14    H9      22.657935   20.242787   22.524334 H          1 MOL1         0.0789
      15    C6      21.129021   19.918142   23.991680 C.3        1 MOL1        -0.1761
      16    H10     21.809723   19.184956   24.443149 H          1 MOL1         0.0832
      17    H11     21.304943   20.853270   24.539936 H          1 MOL1         0.0832
      18    C7      19.669940   19.457355   24.262894 C.3        1 MOL1        -0.1685
      19    H12     19.623167   18.361309   24.270901 H          1 MOL1         0.0832
      20    H13     19.409705   19.752176   25.288605 H          1 MOL1         0.0832
      21    O1      21.037945   21.384663   22.061159 O.3        1 MOL1        -0.5509
      22    H14     20.069009   21.251281   22.078652 H          1 MOL1         0.3779
@<TRIPOS>BOND
    1     1     2    1
    2     1     3    1
    3     1     4    1
    4     4     5    1
    5     4     6    1
    6     4     7    1
    7     7     8    1
    8     7     9    1
    9     7    10    1
   10    10    11    1
   11    10    12    1
   12    10    13    1
   13    13    14    1
   14    13    15    1
   15    15    16    1
   16    15    17    1
   17     1    18    1
   18    15    18    1
   19    18    19    1
   20    18    20    1
   21    13    21    1
   22    21    22    1
@<TRIPOS>SUBSTRUCTURE
       1 MOL1            1 RESIDUE      1      MOL     
@<SCITEGIC>MOL_PROPERTY
VConf Rank
SciTegic.value.IntegerValue
240

@<SCITEGIC>MOL_PROPERTY
Conf_Id
SciTegic.value.IntegerValue
98

@<SCITEGIC>MOL_PROPERTY
Delta U+W
SciTegic.value.DoubleValue
0.930

@<SCITEGIC>MOL_PROPERTY
U+W
SciTegic.value.DoubleValue
7.353

@<SCITEGIC>MOL_PROPERTY
Grad RMS
SciTegic.value.DoubleValue
0.000000

@<SCITEGIC>MOL_PROPERTY
U
SciTegic.value.DoubleValue
8.455

@<SCITEGIC>MOL_PROPERTY
W
SciTegic.value.DoubleValue
-1.102

@<SCITEGIC>MOL_PROPERTY
W(PB)
SciTegic.value.DoubleValue
-3.101

@<SCITEGIC>MOL_PROPERTY
W(SA)
SciTegic.value.DoubleValue
2.000

@<SCITEGIC>MOL_PROPERTY
Valence
SciTegic.value.DoubleValue
15.601

@<SCITEGIC>MOL_PROPERTY
Coulomb
SciTegic.value.DoubleValue
-10.573

@<SCITEGIC>MOL_PROPERTY
VdW
SciTegic.value.DoubleValue
3.427

@<SCITEGIC>MOL_PROPERTY
VdW6
SciTegic.value.DoubleValue
-11.360

@<SCITEGIC>MOL_PROPERTY
VdW12
SciTegic.value.DoubleValue
14.787

@<SCITEGIC>MOL_PROPERTY
Bond
SciTegic.value.DoubleValue
0.471

@<SCITEGIC>MOL_PROPERTY
Angle
SciTegic.value.DoubleValue
5.445

@<SCITEGIC>MOL_PROPERTY
Pdih
SciTegic.value.DoubleValue
9.685

@<SCITEGIC>MOL_PROPERTY
Idih
SciTegic.value.DoubleValue
0.000

@<SCITEGIC>MOL_PROPERTY
Tether
SciTegic.value.DoubleValue
0.000

@<TRIPOS>MOLECULE
guest-5_confgen4.mol2 : confsearch ligand conformer 241
          22          22           1
SMALL
USER_CHARGES
 
@<TRIPOS>ATOM
       1    C1      20.753890   18.617022   23.907521 C.3        1 MOL1        -0.1685
       2    H1      21.307870   19.525961   24.175320 H          1 MOL1         0.0832
       3    H2      21.050320   17.871090   24.657473 H          1 MOL1         0.0832
       4    C2      21.206860   18.119658   22.511237 C.3        1 MOL1        -0.1685
       5    H3      22.286506   17.923645   22.564313 H          1 MOL1         0.0832
       6    H4      20.738621   17.149406   22.296795 H          1 MOL1         0.0832
       7    C3      20.948749   19.085243   21.321418 C.3        1 MOL1        -0.1685
       8    H5      20.082490   18.743300   20.740312 H          1 MOL1         0.0832
       9    H6      21.799413   19.012145   20.630287 H          1 MOL1         0.0832
      10    C4      20.753479   20.573784   21.713622 C.3        1 MOL1        -0.1761
      11    H7      21.590646   20.891782   22.347385 H          1 MOL1         0.0832
      12    H8      20.840642   21.184231   20.804697 H          1 MOL1         0.0832
      13    C5      19.412947   20.919171   22.426048 C.3        1 MOL1         0.1218
      14    H9      19.643608   21.558099   23.290707 H          1 MOL1         0.0789
      15    C6      18.581205   19.711481   22.925998 C.3        1 MOL1        -0.1761
      16    H10     17.613366   20.074857   23.295189 H          1 MOL1         0.0832
      17    H11     18.336436   19.056761   22.081001 H          1 MOL1         0.0832
      18    C7      19.235888   18.875567   24.054025 C.3        1 MOL1        -0.1685
      19    H12     19.066574   19.380715   25.014739 H          1 MOL1         0.0832
      20    H13     18.711393   17.912871   24.123257 H          1 MOL1         0.0832
      21    O1      18.597037   21.652855   21.519862 O.3        1 MOL1        -0.5509
      22    H14     17.787314   21.906156   22.010133 H          1 MOL1         0.3779
@<TRIPOS>BOND
    1     1     2    1
    2     1     3    1
    3     1     4    1
    4     4     5    1
    5     4     6    1
    6     4     7    1
    7     7     8    1
    8     7     9    1
    9     7    10    1
   10    10    11    1
   11    10    12    1
   12    10    13    1
   13    13    14    1
   14    13    15    1
   15    15    16    1
   16    15    17    1
   17     1    18    1
   18    15    18    1
   19    18    19    1
   20    18    20    1
   21    13    21    1
   22    21    22    1
@<TRIPOS>SUBSTRUCTURE
       1 MOL1            1 RESIDUE      1      MOL     
@<SCITEGIC>MOL_PROPERTY
VConf Rank
SciTegic.value.IntegerValue
241

@<SCITEGIC>MOL_PROPERTY
Conf_Id
SciTegic.value.IntegerValue
141

@<SCITEGIC>MOL_PROPERTY
Delta U+W
SciTegic.value.DoubleValue
0.000

@<SCITEGIC>MOL_PROPERTY
U+W
SciTegic.value.DoubleValue
6.423

@<SCITEGIC>MOL_PROPERTY
Grad RMS
SciTegic.value.DoubleValue
0.000000

@<SCITEGIC>MOL_PROPERTY
U
SciTegic.value.DoubleValue
8.781

@<SCITEGIC>MOL_PROPERTY
W
SciTegic.value.DoubleValue
-2.358

@<SCITEGIC>MOL_PROPERTY
W(PB)
SciTegic.value.DoubleValue
-4.373

@<SCITEGIC>MOL_PROPERTY
W(SA)
SciTegic.value.DoubleValue
2.015

@<SCITEGIC>MOL_PROPERTY
Valence
SciTegic.value.DoubleValue
13.328

@<SCITEGIC>MOL_PROPERTY
Coulomb
SciTegic.value.DoubleValue
-8.387

@<SCITEGIC>MOL_PROPERTY
VdW
SciTegic.value.DoubleValue
3.840

@<SCITEGIC>MOL_PROPERTY
VdW6
SciTegic.value.DoubleValue
-9.744

@<SCITEGIC>MOL_PROPERTY
VdW12
SciTegic.value.DoubleValue
13.584

@<SCITEGIC>MOL_PROPERTY
Bond
SciTegic.value.DoubleValue
0.436

@<SCITEGIC>MOL_PROPERTY
Angle
SciTegic.value.DoubleValue
3.478

@<SCITEGIC>MOL_PROPERTY
Pdih
SciTegic.value.DoubleValue
9.415

@<SCITEGIC>MOL_PROPERTY
Idih
SciTegic.value.DoubleValue
0.000

@<SCITEGIC>MOL_PROPERTY
Tether
SciTegic.value.DoubleValue
0.000

@<TRIPOS>MOLECULE
guest-5_confgen4.mol2 : confsearch ligand conformer 242
          22          22           1
SMALL
USER_CHARGES
 
@<TRIPOS>ATOM
       1    C1      19.297282   18.003250   22.713412 C.3        1 MOL1        -0.1685
       2    H1      18.432998   18.416520   23.250840 H          1 MOL1         0.0832
       3    H2      19.078978   16.937360   22.561337 H          1 MOL1         0.0832
       4    C2      20.581576   18.101759   23.571632 C.3        1 MOL1        -0.1685
       5    H3      20.487364   17.413492   24.422672 H          1 MOL1         0.0832
       6    H4      21.438435   17.738755   22.987767 H          1 MOL1         0.0832
       7    C3      20.899149   19.510525   24.123770 C.3        1 MOL1        -0.1685
       8    H5      21.860694   19.462181   24.652845 H          1 MOL1         0.0832
       9    H6      20.152798   19.781633   24.882994 H          1 MOL1         0.0832
      10    C4      20.978292   20.628964   23.056057 C.3        1 MOL1        -0.1761
      11    H7      21.429600   21.509979   23.531050 H          1 MOL1         0.0832
      12    H8      21.655830   20.340079   22.242126 H          1 MOL1         0.0832
      13    C5      19.591978   21.016685   22.494422 C.3        1 MOL1         0.1218
      14    H9      18.849564   20.895222   23.296240 H          1 MOL1         0.0789
      15    C6      19.134483   20.178546   21.278891 C.3        1 MOL1        -0.1761
      16    H10     18.049546   20.309435   21.175788 H          1 MOL1         0.0832
      17    H11     19.575947   20.594916   20.363547 H          1 MOL1         0.0832
      18    C7      19.450660   18.662581   21.322801 C.3        1 MOL1        -0.1685
      19    H12     18.783380   18.155982   20.612223 H          1 MOL1         0.0832
      20    H13     20.467787   18.488330   20.946239 H          1 MOL1         0.0832
      21    O1      19.622629   22.383270   22.101072 O.3        1 MOL1        -0.5509
      22    H14     19.840087   22.903047   22.903046 H          1 MOL1         0.3779
@<TRIPOS>BOND
    1     1     2    1
    2     1     3    1
    3     1     4    1
    4     4     5    1
    5     4     6    1
    6     4     7    1
    7     7     8    1
    8     7     9    1
    9     7    10    1
   10    10    11    1
   11    10    12    1
   12    10    13    1
   13    13    14    1
   14    13    15    1
   15    15    16    1
   16    15    17    1
   17     1    18    1
   18    15    18    1
   19    18    19    1
   20    18    20    1
   21    13    21    1
   22    21    22    1
@<TRIPOS>SUBSTRUCTURE
       1 MOL1            1 RESIDUE      1      MOL     
@<SCITEGIC>MOL_PROPERTY
VConf Rank
SciTegic.value.IntegerValue
242

@<SCITEGIC>MOL_PROPERTY
Conf_Id
SciTegic.value.IntegerValue
144

@<SCITEGIC>MOL_PROPERTY
Delta U+W
SciTegic.value.DoubleValue
-3.291

@<SCITEGIC>MOL_PROPERTY
U+W
SciTegic.value.DoubleValue
3.132

@<SCITEGIC>MOL_PROPERTY
Grad RMS
SciTegic.value.DoubleValue
0.000000

@<SCITEGIC>MOL_PROPERTY
U
SciTegic.value.DoubleValue
5.411

@<SCITEGIC>MOL_PROPERTY
W
SciTegic.value.DoubleValue
-2.279

@<SCITEGIC>MOL_PROPERTY
W(PB)
SciTegic.value.DoubleValue
-4.300

@<SCITEGIC>MOL_PROPERTY
W(SA)
SciTegic.value.DoubleValue
2.021

@<SCITEGIC>MOL_PROPERTY
Valence
SciTegic.value.DoubleValue
11.909

@<SCITEGIC>MOL_PROPERTY
Coulomb
SciTegic.value.DoubleValue
-8.733

@<SCITEGIC>MOL_PROPERTY
VdW
SciTegic.value.DoubleValue
2.236

@<SCITEGIC>MOL_PROPERTY
VdW6
SciTegic.value.DoubleValue
-8.936

@<SCITEGIC>MOL_PROPERTY
VdW12
SciTegic.value.DoubleValue
11.172

@<SCITEGIC>MOL_PROPERTY
Bond
SciTegic.value.DoubleValue
0.223

@<SCITEGIC>MOL_PROPERTY
Angle
SciTegic.value.DoubleValue
2.457

@<SCITEGIC>MOL_PROPERTY
Pdih
SciTegic.value.DoubleValue
9.228

@<SCITEGIC>MOL_PROPERTY
Idih
SciTegic.value.DoubleValue
0.000

@<SCITEGIC>MOL_PROPERTY
Tether
SciTegic.value.DoubleValue
0.000

@<TRIPOS>MOLECULE
guest-5_confgen4.mol2 : confsearch ligand conformer 243
          22          22           1
SMALL
USER_CHARGES
 
@<TRIPOS>ATOM
       1    C1      20.375086   20.111671   21.071722 C.3        1 MOL1        -0.1685
       2    H1      20.357840   20.492615   20.041444 H          1 MOL1         0.0832
       3    H2      21.434569   19.974030   21.327130 H          1 MOL1         0.0832
       4    C2      19.622613   18.760625   21.094818 C.3        1 MOL1        -0.1685
       5    H3      18.541879   18.945218   21.163483 H          1 MOL1         0.0832
       6    H4      19.772434   18.253913   20.131597 H          1 MOL1         0.0832
       7    C3      20.055606   17.787270   22.217769 C.3        1 MOL1        -0.1685
       8    H5      20.945895   17.234502   21.887998 H          1 MOL1         0.0832
       9    H6      19.265605   17.033803   22.341084 H          1 MOL1         0.0832
      10    C4      20.365594   18.422672   23.595562 C.3        1 MOL1        -0.1761
      11    H7      20.327269   17.624871   24.349561 H          1 MOL1         0.0832
      12    H8      21.401145   18.786690   23.599826 H          1 MOL1         0.0832
      13    C5      19.418794   19.570862   24.011282 C.3        1 MOL1         0.1218
      14    H9      18.406413   19.368291   23.633767 H          1 MOL1         0.0789
      15    C6      19.897313   20.948360   23.498936 C.3        1 MOL1        -0.1761
      16    H10     19.341059   21.733235   24.028733 H          1 MOL1         0.0832
      17    H11     20.952512   21.091967   23.765426 H          1 MOL1         0.0832
      18    C7      19.721740   21.181270   21.979515 C.3        1 MOL1        -0.1685
      19    H12     18.651251   21.255190   21.743901 H          1 MOL1         0.0832
      20    H13     20.151105   22.161360   21.730802 H          1 MOL1         0.0832
      21    O1      19.377270   19.623842   25.431029 O.3        1 MOL1        -0.5509
      22    H14     20.293082   19.803370   25.728042 H          1 MOL1         0.3779
@<TRIPOS>BOND
    1     1     2    1
    2     1     3    1
    3     1     4    1
    4     4     5    1
    5     4     6    1
    6     4     7    1
    7     7     8    1
    8     7     9    1
    9     7    10    1
   10    10    11    1
   11    10    12    1
   12    10    13    1
   13    13    14    1
   14    13    15    1
   15    15    16    1
   16    15    17    1
   17     1    18    1
   18    15    18    1
   19    18    19    1
   20    18    20    1
   21    13    21    1
   22    21    22    1
@<TRIPOS>SUBSTRUCTURE
       1 MOL1            1 RESIDUE      1      MOL     
@<SCITEGIC>MOL_PROPERTY
VConf Rank
SciTegic.value.IntegerValue
243

@<SCITEGIC>MOL_PROPERTY
Conf_Id
SciTegic.value.IntegerValue
76

@<SCITEGIC>MOL_PROPERTY
Delta U+W
SciTegic.value.DoubleValue
-3.175

@<SCITEGIC>MOL_PROPERTY
U+W
SciTegic.value.DoubleValue
3.248

@<SCITEGIC>MOL_PROPERTY
Grad RMS
SciTegic.value.DoubleValue
0.000000

@<SCITEGIC>MOL_PROPERTY
U
SciTegic.value.DoubleValue
5.336

@<SCITEGIC>MOL_PROPERTY
W
SciTegic.value.DoubleValue
-2.088

@<SCITEGIC>MOL_PROPERTY
W(PB)
SciTegic.value.DoubleValue
-4.098

@<SCITEGIC>MOL_PROPERTY
W(SA)
SciTegic.value.DoubleValue
2.010

@<SCITEGIC>MOL_PROPERTY
Valence
SciTegic.value.DoubleValue
12.390

@<SCITEGIC>MOL_PROPERTY
Coulomb
SciTegic.value.DoubleValue
-9.270

@<SCITEGIC>MOL_PROPERTY
VdW
SciTegic.value.DoubleValue
2.216

@<SCITEGIC>MOL_PROPERTY
VdW6
SciTegic.value.DoubleValue
-8.967

@<SCITEGIC>MOL_PROPERTY
VdW12
SciTegic.value.DoubleValue
11.183

@<SCITEGIC>MOL_PROPERTY
Bond
SciTegic.value.DoubleValue
0.218

@<SCITEGIC>MOL_PROPERTY
Angle
SciTegic.value.DoubleValue
2.426

@<SCITEGIC>MOL_PROPERTY
Pdih
SciTegic.value.DoubleValue
9.745

@<SCITEGIC>MOL_PROPERTY
Idih
SciTegic.value.DoubleValue
0.000

@<SCITEGIC>MOL_PROPERTY
Tether
SciTegic.value.DoubleValue
0.000

@<TRIPOS>MOLECULE
guest-5_confgen4.mol2 : confsearch ligand conformer 244
          22          22           1
SMALL
USER_CHARGES
 
@<TRIPOS>ATOM
       1    C1      19.082083   20.642442   23.856901 C.3        1 MOL1        -0.1685
       2    H1      18.544994   21.568421   23.610162 H          1 MOL1         0.0832
       3    H2      18.854395   20.437872   24.911948 H          1 MOL1         0.0832
       4    C2      20.599488   20.910389   23.714207 C.3        1 MOL1        -0.1685
       5    H3      20.773994   21.588843   22.868201 H          1 MOL1         0.0832
       6    H4      20.932245   21.460375   24.605034 H          1 MOL1         0.0832
       7    C3      21.474460   19.646046   23.548670 C.3        1 MOL1        -0.1685
       8    H5      21.093099   18.820062   24.164422 H          1 MOL1         0.0832
       9    H6      22.478308   19.873441   23.931908 H          1 MOL1         0.0832
      10    C4      21.622181   19.208042   22.069342 C.3        1 MOL1        -0.1761
      11    H7      21.934740   20.070713   21.467164 H          1 MOL1         0.0832
      12    H8      22.445684   18.485370   21.998613 H          1 MOL1         0.0832
      13    C5      20.373311   18.572256   21.417271 C.3        1 MOL1         0.1218
      14    H9      20.584037   18.491370   20.341098 H          1 MOL1         0.0789
      15    C6      19.064693   19.388391   21.565366 C.3        1 MOL1        -0.1761
      16    H10     19.205069   20.394988   21.150715 H          1 MOL1         0.0832
      17    H11     18.304000   18.911716   20.933769 H          1 MOL1         0.0832
      18    C7      18.506716   19.482803   23.009307 C.3        1 MOL1        -0.1685
      19    H12     17.416893   19.610206   22.959558 H          1 MOL1         0.0832
      20    H13     18.664419   18.533015   23.537013 H          1 MOL1         0.0832
      21    O1      20.191530   17.257588   21.933630 O.3        1 MOL1        -0.5509
      22    H14     19.365883   16.913460   21.535929 H          1 MOL1         0.3779
@<TRIPOS>BOND
    1     1     2    1
    2     1     3    1
    3     1     4    1
    4     4     5    1
    5     4     6    1
    6     4     7    1
    7     7     8    1
    8     7     9    1
    9     7    10    1
   10    10    11    1
   11    10    12    1
   12    10    13    1
   13    13    14    1
   14    13    15    1
   15    15    16    1
   16    15    17    1
   17     1    18    1
   18    15    18    1
   19    18    19    1
   20    18    20    1
   21    13    21    1
   22    21    22    1
@<TRIPOS>SUBSTRUCTURE
       1 MOL1            1 RESIDUE      1      MOL     
@<SCITEGIC>MOL_PROPERTY
VConf Rank
SciTegic.value.IntegerValue
244

@<SCITEGIC>MOL_PROPERTY
Conf_Id
SciTegic.value.IntegerValue
95

@<SCITEGIC>MOL_PROPERTY
Delta U+W
SciTegic.value.DoubleValue
-2.289

@<SCITEGIC>MOL_PROPERTY
U+W
SciTegic.value.DoubleValue
4.134

@<SCITEGIC>MOL_PROPERTY
Grad RMS
SciTegic.value.DoubleValue
0.000000

@<SCITEGIC>MOL_PROPERTY
U
SciTegic.value.DoubleValue
6.373

@<SCITEGIC>MOL_PROPERTY
W
SciTegic.value.DoubleValue
-2.240

@<SCITEGIC>MOL_PROPERTY
W(PB)
SciTegic.value.DoubleValue
-4.254

@<SCITEGIC>MOL_PROPERTY
W(SA)
SciTegic.value.DoubleValue
2.015

@<SCITEGIC>MOL_PROPERTY
Valence
SciTegic.value.DoubleValue
12.093

@<SCITEGIC>MOL_PROPERTY
Coulomb
SciTegic.value.DoubleValue
-8.058

@<SCITEGIC>MOL_PROPERTY
VdW
SciTegic.value.DoubleValue
2.339

@<SCITEGIC>MOL_PROPERTY
VdW6
SciTegic.value.DoubleValue
-9.683

@<SCITEGIC>MOL_PROPERTY
VdW12
SciTegic.value.DoubleValue
12.022

@<SCITEGIC>MOL_PROPERTY
Bond
SciTegic.value.DoubleValue
0.268

@<SCITEGIC>MOL_PROPERTY
Angle
SciTegic.value.DoubleValue
3.005

@<SCITEGIC>MOL_PROPERTY
Pdih
SciTegic.value.DoubleValue
8.820

@<SCITEGIC>MOL_PROPERTY
Idih
SciTegic.value.DoubleValue
0.000

@<SCITEGIC>MOL_PROPERTY
Tether
SciTegic.value.DoubleValue
0.000

@<TRIPOS>MOLECULE
guest-5_confgen4.mol2 : confsearch ligand conformer 245
          22          22           1
SMALL
USER_CHARGES
 
@<TRIPOS>ATOM
       1    C1      21.465413   18.349914   22.718317 C.3        1 MOL1        -0.1685
       2    H1      22.529441   18.523928   22.928834 H          1 MOL1         0.0832
       3    H2      21.367855   17.268660   22.550506 H          1 MOL1         0.0832
       4    C2      21.102589   19.094449   21.411276 C.3        1 MOL1        -0.1685
       5    H3      21.660537   20.039271   21.361427 H          1 MOL1         0.0832
       6    H4      21.466659   18.493953   20.566494 H          1 MOL1         0.0832
       7    C3      19.594782   19.375929   21.214294 C.3        1 MOL1        -0.1685
       8    H5      18.987021   18.537898   21.581923 H          1 MOL1         0.0832
       9    H6      19.399461   19.444102   20.135578 H          1 MOL1         0.0832
      10    C4      19.146792   20.711156   21.860656 C.3        1 MOL1        -0.1761
      11    H7      19.826512   21.511106   21.539787 H          1 MOL1         0.0832
      12    H8      18.163858   20.984710   21.455699 H          1 MOL1         0.0832
      13    C5      19.059074   20.726173   23.403969 C.3        1 MOL1         0.1218
      14    H9      18.904087   21.772881   23.703104 H          1 MOL1         0.0789
      15    C6      20.327669   20.226647   24.139818 C.3        1 MOL1        -0.1761
      16    H10     21.196493   20.824813   23.836781 H          1 MOL1         0.0832
      17    H11     20.182922   20.428452   25.209001 H          1 MOL1         0.0832
      18    C7      20.635590   18.715859   23.972052 C.3        1 MOL1        -0.1685
      19    H12     21.188064   18.368477   24.855406 H          1 MOL1         0.0832
      20    H13     19.699491   18.141978   23.971702 H          1 MOL1         0.0832
      21    O1      17.923704   19.973230   23.819786 O.3        1 MOL1        -0.5509
      22    H14     17.158323   20.316231   23.315080 H          1 MOL1         0.3779
@<TRIPOS>BOND
    1     1     2    1
    2     1     3    1
    3     1     4    1
    4     4     5    1
    5     4     6    1
    6     4     7    1
    7     7     8    1
    8     7     9    1
    9     7    10    1
   10    10    11    1
   11    10    12    1
   12    10    13    1
   13    13    14    1
   14    13    15    1
   15    15    16    1
   16    15    17    1
   17     1    18    1
   18    15    18    1
   19    18    19    1
   20    18    20    1
   21    13    21    1
   22    21    22    1
@<TRIPOS>SUBSTRUCTURE
       1 MOL1            1 RESIDUE      1      MOL     
@<SCITEGIC>MOL_PROPERTY
VConf Rank
SciTegic.value.IntegerValue
245

@<SCITEGIC>MOL_PROPERTY
Conf_Id
SciTegic.value.IntegerValue
41

@<SCITEGIC>MOL_PROPERTY
Delta U+W
SciTegic.value.DoubleValue
-2.114

@<SCITEGIC>MOL_PROPERTY
U+W
SciTegic.value.DoubleValue
4.310

@<SCITEGIC>MOL_PROPERTY
Grad RMS
SciTegic.value.DoubleValue
0.000000

@<SCITEGIC>MOL_PROPERTY
U
SciTegic.value.DoubleValue
6.598

@<SCITEGIC>MOL_PROPERTY
W
SciTegic.value.DoubleValue
-2.289

@<SCITEGIC>MOL_PROPERTY
W(PB)
SciTegic.value.DoubleValue
-4.294

@<SCITEGIC>MOL_PROPERTY
W(SA)
SciTegic.value.DoubleValue
2.005

@<SCITEGIC>MOL_PROPERTY
Valence
SciTegic.value.DoubleValue
12.082

@<SCITEGIC>MOL_PROPERTY
Coulomb
SciTegic.value.DoubleValue
-7.801

@<SCITEGIC>MOL_PROPERTY
VdW
SciTegic.value.DoubleValue
2.317

@<SCITEGIC>MOL_PROPERTY
VdW6
SciTegic.value.DoubleValue
-9.658

@<SCITEGIC>MOL_PROPERTY
VdW12
SciTegic.value.DoubleValue
11.975

@<SCITEGIC>MOL_PROPERTY
Bond
SciTegic.value.DoubleValue
0.267

@<SCITEGIC>MOL_PROPERTY
Angle
SciTegic.value.DoubleValue
3.051

@<SCITEGIC>MOL_PROPERTY
Pdih
SciTegic.value.DoubleValue
8.764

@<SCITEGIC>MOL_PROPERTY
Idih
SciTegic.value.DoubleValue
0.000

@<SCITEGIC>MOL_PROPERTY
Tether
SciTegic.value.DoubleValue
0.000

@<TRIPOS>MOLECULE
guest-5_confgen4.mol2 : confsearch ligand conformer 246
          22          22           1
SMALL
USER_CHARGES
 
@<TRIPOS>ATOM
       1    C1      18.439751   19.646392   22.951396 C.3        1 MOL1        -0.1685
       2    H1      17.353597   19.486235   22.985581 H          1 MOL1         0.0832
       3    H2      18.664093   20.400892   23.717931 H          1 MOL1         0.0832
       4    C2      18.796804   20.174421   21.543886 C.3        1 MOL1        -0.1685
       5    H3      18.624068   19.384590   20.800306 H          1 MOL1         0.0832
       6    H4      18.102915   20.986391   21.287405 H          1 MOL1         0.0832
       7    C3      20.239110   20.708358   21.402862 C.3        1 MOL1        -0.1685
       8    H5      20.346720   21.629807   21.990434 H          1 MOL1         0.0832
       9    H6      20.388273   21.007692   20.356786 H          1 MOL1         0.0832
      10    C4      21.356315   19.700426   21.786414 C.3        1 MOL1        -0.1761
      11    H7      21.204889   18.750953   21.257425 H          1 MOL1         0.0832
      12    H8      22.307187   20.100141   21.411374 H          1 MOL1         0.0832
      13    C5      21.539321   19.434462   23.302924 C.3        1 MOL1         0.1218
      14    H9      22.532539   18.978640   23.425487 H          1 MOL1         0.0789
      15    C6      20.529760   18.446731   23.943482 C.3        1 MOL1        -0.1761
      16    H10     20.990969   17.450623   23.954353 H          1 MOL1         0.0832
      17    H11     20.391417   18.711591   24.999977 H          1 MOL1         0.0832
      18    C7      19.136580   18.307849   23.281168 C.3        1 MOL1        -0.1685
      19    H12     19.214853   17.695726   22.372547 H          1 MOL1         0.0832
      20    H13     18.494727   17.737181   23.966035 H          1 MOL1         0.0832
      21    O1      21.535834   20.661307   24.028016 O.3        1 MOL1        -0.5509
      22    H14     21.694164   20.435222   24.967019 H          1 MOL1         0.3779
@<TRIPOS>BOND
    1     1     2    1
    2     1     3    1
    3     1     4    1
    4     4     5    1
    5     4     6    1
    6     4     7    1
    7     7     8    1
    8     7     9    1
    9     7    10    1
   10    10    11    1
   11    10    12    1
   12    10    13    1
   13    13    14    1
   14    13    15    1
   15    15    16    1
   16    15    17    1
   17     1    18    1
   18    15    18    1
   19    18    19    1
   20    18    20    1
   21    13    21    1
   22    21    22    1
@<TRIPOS>SUBSTRUCTURE
       1 MOL1            1 RESIDUE      1      MOL     
@<SCITEGIC>MOL_PROPERTY
VConf Rank
SciTegic.value.IntegerValue
246

@<SCITEGIC>MOL_PROPERTY
Conf_Id
SciTegic.value.IntegerValue
104

@<SCITEGIC>MOL_PROPERTY
Delta U+W
SciTegic.value.DoubleValue
-1.172

@<SCITEGIC>MOL_PROPERTY
U+W
SciTegic.value.DoubleValue
5.252

@<SCITEGIC>MOL_PROPERTY
Grad RMS
SciTegic.value.DoubleValue
0.000000

@<SCITEGIC>MOL_PROPERTY
U
SciTegic.value.DoubleValue
7.482

@<SCITEGIC>MOL_PROPERTY
W
SciTegic.value.DoubleValue
-2.230

@<SCITEGIC>MOL_PROPERTY
W(PB)
SciTegic.value.DoubleValue
-4.220

@<SCITEGIC>MOL_PROPERTY
W(SA)
SciTegic.value.DoubleValue
1.990

@<SCITEGIC>MOL_PROPERTY
Valence
SciTegic.value.DoubleValue
12.309

@<SCITEGIC>MOL_PROPERTY
Coulomb
SciTegic.value.DoubleValue
-7.084

@<SCITEGIC>MOL_PROPERTY
VdW
SciTegic.value.DoubleValue
2.258

@<SCITEGIC>MOL_PROPERTY
VdW6
SciTegic.value.DoubleValue
-9.770

@<SCITEGIC>MOL_PROPERTY
VdW12
SciTegic.value.DoubleValue
12.028

@<SCITEGIC>MOL_PROPERTY
Bond
SciTegic.value.DoubleValue
0.284

@<SCITEGIC>MOL_PROPERTY
Angle
SciTegic.value.DoubleValue
3.491

@<SCITEGIC>MOL_PROPERTY
Pdih
SciTegic.value.DoubleValue
8.535

@<SCITEGIC>MOL_PROPERTY
Idih
SciTegic.value.DoubleValue
0.000

@<SCITEGIC>MOL_PROPERTY
Tether
SciTegic.value.DoubleValue
0.000

@<TRIPOS>MOLECULE
guest-5_confgen4.mol2 : confsearch ligand conformer 247
          22          22           1
SMALL
USER_CHARGES
 
@<TRIPOS>ATOM
       1    C1      21.384566   18.622482   22.842194 C.3        1 MOL1        -0.1685
       2    H1      20.893212   17.974603   23.580645 H          1 MOL1         0.0832
       3    H2      22.404901   18.231398   22.728575 H          1 MOL1         0.0832
       4    C2      21.489910   20.073667   23.364160 C.3        1 MOL1        -0.1685
       5    H3      22.336674   20.134475   24.061685 H          1 MOL1         0.0832
       6    H4      21.757666   20.740213   22.533883 H          1 MOL1         0.0832
       7    C3      20.236230   20.616906   24.095496 C.3        1 MOL1        -0.1685
       8    H5      20.233801   21.712682   24.014350 H          1 MOL1         0.0832
       9    H6      20.340727   20.404753   25.168343 H          1 MOL1         0.0832
      10    C4      18.855401   20.069496   23.642885 C.3        1 MOL1        -0.1761
      11    H7      18.699698   19.077578   24.086519 H          1 MOL1         0.0832
      12    H8      18.077489   20.706760   24.083055 H          1 MOL1         0.0832
      13    C5      18.597969   19.978713   22.121219 C.3        1 MOL1         0.1218
      14    H9      17.508435   19.967183   21.974036 H          1 MOL1         0.0789
      15    C6      19.146977   18.676302   21.496252 C.3        1 MOL1        -0.1761
      16    H10     18.713815   17.820423   22.030016 H          1 MOL1         0.0832
      17    H11     18.769633   18.604798   20.467786 H          1 MOL1         0.0832
      18    C7      20.687595   18.520469   21.464571 C.3        1 MOL1        -0.1685
      19    H12     20.917234   17.536308   21.033985 H          1 MOL1         0.0832
      20    H13     21.121964   19.254016   20.771960 H          1 MOL1         0.0832
      21    O1      19.141540   21.107986   21.455304 O.3        1 MOL1        -0.5509
      22    H14     20.088273   21.096310   21.699941 H          1 MOL1         0.3779
@<TRIPOS>BOND
    1     1     2    1
    2     1     3    1
    3     1     4    1
    4     4     5    1
    5     4     6    1
    6     4     7    1
    7     7     8    1
    8     7     9    1
    9     7    10    1
   10    10    11    1
   11    10    12    1
   12    10    13    1
   13    13    14    1
   14    13    15    1
   15    15    16    1
   16    15    17    1
   17     1    18    1
   18    15    18    1
   19    18    19    1
   20    18    20    1
   21    13    21    1
   22    21    22    1
@<TRIPOS>SUBSTRUCTURE
       1 MOL1            1 RESIDUE      1      MOL     
@<SCITEGIC>MOL_PROPERTY
VConf Rank
SciTegic.value.IntegerValue
247

@<SCITEGIC>MOL_PROPERTY
Conf_Id
SciTegic.value.IntegerValue
99

@<SCITEGIC>MOL_PROPERTY
Delta U+W
SciTegic.value.DoubleValue
-3.852

@<SCITEGIC>MOL_PROPERTY
U+W
SciTegic.value.DoubleValue
2.572

@<SCITEGIC>MOL_PROPERTY
Grad RMS
SciTegic.value.DoubleValue
0.000000

@<SCITEGIC>MOL_PROPERTY
U
SciTegic.value.DoubleValue
3.922

@<SCITEGIC>MOL_PROPERTY
W
SciTegic.value.DoubleValue
-1.350

@<SCITEGIC>MOL_PROPERTY
W(PB)
SciTegic.value.DoubleValue
-3.345

@<SCITEGIC>MOL_PROPERTY
W(SA)
SciTegic.value.DoubleValue
1.995

@<SCITEGIC>MOL_PROPERTY
Valence
SciTegic.value.DoubleValue
12.571

@<SCITEGIC>MOL_PROPERTY
Coulomb
SciTegic.value.DoubleValue
-10.581

@<SCITEGIC>MOL_PROPERTY
VdW
SciTegic.value.DoubleValue
1.932

@<SCITEGIC>MOL_PROPERTY
VdW6
SciTegic.value.DoubleValue
-10.483

@<SCITEGIC>MOL_PROPERTY
VdW12
SciTegic.value.DoubleValue
12.415

@<SCITEGIC>MOL_PROPERTY
Bond
SciTegic.value.DoubleValue
0.268

@<SCITEGIC>MOL_PROPERTY
Angle
SciTegic.value.DoubleValue
3.728

@<SCITEGIC>MOL_PROPERTY
Pdih
SciTegic.value.DoubleValue
8.575

@<SCITEGIC>MOL_PROPERTY
Idih
SciTegic.value.DoubleValue
0.000

@<SCITEGIC>MOL_PROPERTY
Tether
SciTegic.value.DoubleValue
0.000

@<TRIPOS>MOLECULE
guest-5_confgen4.mol2 : confsearch ligand conformer 248
          22          22           1
SMALL
USER_CHARGES
 
@<TRIPOS>ATOM
       1    C1      20.845329   18.764380   21.452210 C.3        1 MOL1        -0.1685
       2    H1      21.572631   18.706155   20.630667 H          1 MOL1         0.0832
       3    H2      20.404706   17.760216   21.511880 H          1 MOL1         0.0832
       4    C2      19.757625   19.804677   21.054049 C.3        1 MOL1        -0.1685
       5    H3      20.014047   20.196603   20.060101 H          1 MOL1         0.0832
       6    H4      18.788229   19.306239   20.920315 H          1 MOL1         0.0832
       7    C3      19.592057   21.013600   22.010001 C.3        1 MOL1        -0.1685
       8    H5      18.945799   21.755533   21.521521 H          1 MOL1         0.0832
       9    H6      20.555333   21.524446   22.131268 H          1 MOL1         0.0832
      10    C4      18.985101   20.700263   23.405799 C.3        1 MOL1        -0.1761
      11    H7      19.277926   21.502697   24.095070 H          1 MOL1         0.0832
      12    H8      17.891473   20.766689   23.331219 H          1 MOL1         0.0832
      13    C5      19.325962   19.340439   24.063713 C.3        1 MOL1         0.1218
      14    H9      19.001723   19.402833   25.112402 H          1 MOL1         0.0789
      15    C6      20.822461   18.942421   24.078472 C.3        1 MOL1        -0.1761
      16    H10     21.332414   19.536917   24.847409 H          1 MOL1         0.0832
      17    H11     20.884798   17.902837   24.426860 H          1 MOL1         0.0832
      18    C7      21.628382   19.065778   22.755568 C.3        1 MOL1        -0.1685
      19    H12     22.084904   20.061295   22.691515 H          1 MOL1         0.0832
      20    H13     22.480293   18.374852   22.815513 H          1 MOL1         0.0832
      21    O1      18.565593   18.311127   23.450852 O.3        1 MOL1        -0.5509
      22    H14     18.889084   18.295905   22.527784 H          1 MOL1         0.3779
@<TRIPOS>BOND
    1     1     2    1
    2     1     3    1
    3     1     4    1
    4     4     5    1
    5     4     6    1
    6     4     7    1
    7     7     8    1
    8     7     9    1
    9     7    10    1
   10    10    11    1
   11    10    12    1
   12    10    13    1
   13    13    14    1
   14    13    15    1
   15    15    16    1
   16    15    17    1
   17     1    18    1
   18    15    18    1
   19    18    19    1
   20    18    20    1
   21    13    21    1
   22    21    22    1
@<TRIPOS>SUBSTRUCTURE
       1 MOL1            1 RESIDUE      1      MOL     
@<SCITEGIC>MOL_PROPERTY
VConf Rank
SciTegic.value.IntegerValue
248

@<SCITEGIC>MOL_PROPERTY
Conf_Id
SciTegic.value.IntegerValue
98

@<SCITEGIC>MOL_PROPERTY
Delta U+W
SciTegic.value.DoubleValue
0.930

@<SCITEGIC>MOL_PROPERTY
U+W
SciTegic.value.DoubleValue
7.353

@<SCITEGIC>MOL_PROPERTY
Grad RMS
SciTegic.value.DoubleValue
0.000000

@<SCITEGIC>MOL_PROPERTY
U
SciTegic.value.DoubleValue
8.455

@<SCITEGIC>MOL_PROPERTY
W
SciTegic.value.DoubleValue
-1.102

@<SCITEGIC>MOL_PROPERTY
W(PB)
SciTegic.value.DoubleValue
-3.101

@<SCITEGIC>MOL_PROPERTY
W(SA)
SciTegic.value.DoubleValue
2.000

@<SCITEGIC>MOL_PROPERTY
Valence
SciTegic.value.DoubleValue
15.601

@<SCITEGIC>MOL_PROPERTY
Coulomb
SciTegic.value.DoubleValue
-10.573

@<SCITEGIC>MOL_PROPERTY
VdW
SciTegic.value.DoubleValue
3.427

@<SCITEGIC>MOL_PROPERTY
VdW6
SciTegic.value.DoubleValue
-11.360

@<SCITEGIC>MOL_PROPERTY
VdW12
SciTegic.value.DoubleValue
14.787

@<SCITEGIC>MOL_PROPERTY
Bond
SciTegic.value.DoubleValue
0.471

@<SCITEGIC>MOL_PROPERTY
Angle
SciTegic.value.DoubleValue
5.445

@<SCITEGIC>MOL_PROPERTY
Pdih
SciTegic.value.DoubleValue
9.685

@<SCITEGIC>MOL_PROPERTY
Idih
SciTegic.value.DoubleValue
0.000

@<SCITEGIC>MOL_PROPERTY
Tether
SciTegic.value.DoubleValue
0.000

@<TRIPOS>MOLECULE
guest-5_confgen4.mol2 : confsearch ligand conformer 249
          22          22           1
SMALL
USER_CHARGES
 
@<TRIPOS>ATOM
       1    C1      19.040279   19.711202   21.250999 C.3        1 MOL1        -0.1685
       2    H1      19.857940   19.243755   20.687346 H          1 MOL1         0.0832
       3    H2      18.241173   19.871098   20.514402 H          1 MOL1         0.0832
       4    C2      19.497269   21.090511   21.790283 C.3        1 MOL1        -0.1685
       5    H3      19.783719   21.705069   20.925911 H          1 MOL1         0.0832
       6    H4      18.644092   21.605856   22.251945 H          1 MOL1         0.0832
       7    C3      20.687231   21.077095   22.789511 C.3        1 MOL1        -0.1685
       8    H5      20.320508   21.225311   23.813504 H          1 MOL1         0.0832
       9    H6      21.316218   21.954085   22.584822 H          1 MOL1         0.0832
      10    C4      21.575012   19.805559   22.737048 C.3        1 MOL1        -0.1761
      11    H7      21.886257   19.626454   21.700383 H          1 MOL1         0.0832
      12    H8      22.507418   20.013311   23.279124 H          1 MOL1         0.0832
      13    C5      20.937082   18.506533   23.311022 C.3        1 MOL1         0.1218
      14    H9      21.129761   17.691194   22.598867 H          1 MOL1         0.0789
      15    C6      19.412375   18.562749   23.580031 C.3        1 MOL1        -0.1761
      16    H10     19.107550   17.640890   24.092198 H          1 MOL1         0.0832
      17    H11     19.192279   19.369305   24.289689 H          1 MOL1         0.0832
      18    C7      18.521657   18.723899   22.322868 C.3        1 MOL1        -0.1685
      19    H12     18.394543   17.741009   21.848965 H          1 MOL1         0.0832
      20    H13     17.518523   19.035340   22.644425 H          1 MOL1         0.0832
      21    O1      21.576450   18.197370   24.544230 O.3        1 MOL1        -0.5509
      22    H14     21.197918   17.348205   24.853762 H          1 MOL1         0.3779
@<TRIPOS>BOND
    1     1     2    1
    2     1     3    1
    3     1     4    1
    4     4     5    1
    5     4     6    1
    6     4     7    1
    7     7     8    1
    8     7     9    1
    9     7    10    1
   10    10    11    1
   11    10    12    1
   12    10    13    1
   13    13    14    1
   14    13    15    1
   15    15    16    1
   16    15    17    1
   17     1    18    1
   18    15    18    1
   19    18    19    1
   20    18    20    1
   21    13    21    1
   22    21    22    1
@<TRIPOS>SUBSTRUCTURE
       1 MOL1            1 RESIDUE      1      MOL     
@<SCITEGIC>MOL_PROPERTY
VConf Rank
SciTegic.value.IntegerValue
249

@<SCITEGIC>MOL_PROPERTY
Conf_Id
SciTegic.value.IntegerValue
141

@<SCITEGIC>MOL_PROPERTY
Delta U+W
SciTegic.value.DoubleValue
0.000

@<SCITEGIC>MOL_PROPERTY
U+W
SciTegic.value.DoubleValue
6.423

@<SCITEGIC>MOL_PROPERTY
Grad RMS
SciTegic.value.DoubleValue
0.000000

@<SCITEGIC>MOL_PROPERTY
U
SciTegic.value.DoubleValue
8.781

@<SCITEGIC>MOL_PROPERTY
W
SciTegic.value.DoubleValue
-2.358

@<SCITEGIC>MOL_PROPERTY
W(PB)
SciTegic.value.DoubleValue
-4.373

@<SCITEGIC>MOL_PROPERTY
W(SA)
SciTegic.value.DoubleValue
2.015

@<SCITEGIC>MOL_PROPERTY
Valence
SciTegic.value.DoubleValue
13.328

@<SCITEGIC>MOL_PROPERTY
Coulomb
SciTegic.value.DoubleValue
-8.387

@<SCITEGIC>MOL_PROPERTY
VdW
SciTegic.value.DoubleValue
3.840

@<SCITEGIC>MOL_PROPERTY
VdW6
SciTegic.value.DoubleValue
-9.744

@<SCITEGIC>MOL_PROPERTY
VdW12
SciTegic.value.DoubleValue
13.584

@<SCITEGIC>MOL_PROPERTY
Bond
SciTegic.value.DoubleValue
0.436

@<SCITEGIC>MOL_PROPERTY
Angle
SciTegic.value.DoubleValue
3.478

@<SCITEGIC>MOL_PROPERTY
Pdih
SciTegic.value.DoubleValue
9.415

@<SCITEGIC>MOL_PROPERTY
Idih
SciTegic.value.DoubleValue
0.000

@<SCITEGIC>MOL_PROPERTY
Tether
SciTegic.value.DoubleValue
0.000

@<TRIPOS>MOLECULE
guest-5_confgen4.mol2 : confsearch ligand conformer 250
          22          22           1
SMALL
USER_CHARGES
 
@<TRIPOS>ATOM
       1    C1      19.855806   19.584790   24.402665 C.3        1 MOL1        -0.1685
       2    H1      20.833978   19.086717   24.444044 H          1 MOL1         0.0832
       3    H2      19.552412   19.745335   25.446256 H          1 MOL1         0.0832
       4    C2      18.796602   18.670449   23.741061 C.3        1 MOL1        -0.1685
       5    H3      18.597120   17.823739   24.411990 H          1 MOL1         0.0832
       6    H4      17.846311   19.215294   23.657572 H          1 MOL1         0.0832
       7    C3      19.185851   18.106173   22.355273 C.3        1 MOL1        -0.1685
       8    H5      18.332068   17.534845   21.966089 H          1 MOL1         0.0832
       9    H6      20.002825   17.381139   22.472912 H          1 MOL1         0.0832
      10    C4      19.588165   19.170448   21.305205 C.3        1 MOL1        -0.1761
      11    H7      19.612690   18.676763   20.324818 H          1 MOL1         0.0832
      12    H8      18.821839   19.953175   21.233938 H          1 MOL1         0.0832
      13    C5      20.973608   19.793523   21.587964 C.3        1 MOL1         0.1218
      14    H9      21.607990   19.025364   22.053082 H          1 MOL1         0.0789
      15    C6      20.944763   21.027333   22.518651 C.3        1 MOL1        -0.1761
      16    H10     21.962978   21.178677   22.899677 H          1 MOL1         0.0832
      17    H11     20.708534   21.922578   21.928021 H          1 MOL1         0.0832
      18    C7      19.967963   20.967880   23.719639 C.3        1 MOL1        -0.1685
      19    H12     20.297985   21.706893   24.462451 H          1 MOL1         0.0832
      20    H13     18.970762   21.298696   23.398918 H          1 MOL1         0.0832
      21    O1      21.560121   20.186508   20.353143 O.3        1 MOL1        -0.5509
      22    H14     21.638687   19.376191   19.807403 H          1 MOL1         0.3779
@<TRIPOS>BOND
    1     1     2    1
    2     1     3    1
    3     1     4    1
    4     4     5    1
    5     4     6    1
    6     4     7    1
    7     7     8    1
    8     7     9    1
    9     7    10    1
   10    10    11    1
   11    10    12    1
   12    10    13    1
   13    13    14    1
   14    13    15    1
   15    15    16    1
   16    15    17    1
   17     1    18    1
   18    15    18    1
   19    18    19    1
   20    18    20    1
   21    13    21    1
   22    21    22    1
@<TRIPOS>SUBSTRUCTURE
       1 MOL1            1 RESIDUE      1      MOL     
@<SCITEGIC>MOL_PROPERTY
VConf Rank
SciTegic.value.IntegerValue
250

@<SCITEGIC>MOL_PROPERTY
Conf_Id
SciTegic.value.IntegerValue
144

@<SCITEGIC>MOL_PROPERTY
Delta U+W
SciTegic.value.DoubleValue
-3.291

@<SCITEGIC>MOL_PROPERTY
U+W
SciTegic.value.DoubleValue
3.132

@<SCITEGIC>MOL_PROPERTY
Grad RMS
SciTegic.value.DoubleValue
0.000000

@<SCITEGIC>MOL_PROPERTY
U
SciTegic.value.DoubleValue
5.411

@<SCITEGIC>MOL_PROPERTY
W
SciTegic.value.DoubleValue
-2.279

@<SCITEGIC>MOL_PROPERTY
W(PB)
SciTegic.value.DoubleValue
-4.300

@<SCITEGIC>MOL_PROPERTY
W(SA)
SciTegic.value.DoubleValue
2.021

@<SCITEGIC>MOL_PROPERTY
Valence
SciTegic.value.DoubleValue
11.909

@<SCITEGIC>MOL_PROPERTY
Coulomb
SciTegic.value.DoubleValue
-8.733

@<SCITEGIC>MOL_PROPERTY
VdW
SciTegic.value.DoubleValue
2.236

@<SCITEGIC>MOL_PROPERTY
VdW6
SciTegic.value.DoubleValue
-8.936

@<SCITEGIC>MOL_PROPERTY
VdW12
SciTegic.value.DoubleValue
11.172

@<SCITEGIC>MOL_PROPERTY
Bond
SciTegic.value.DoubleValue
0.223

@<SCITEGIC>MOL_PROPERTY
Angle
SciTegic.value.DoubleValue
2.457

@<SCITEGIC>MOL_PROPERTY
Pdih
SciTegic.value.DoubleValue
9.228

@<SCITEGIC>MOL_PROPERTY
Idih
SciTegic.value.DoubleValue
0.000

@<SCITEGIC>MOL_PROPERTY
Tether
SciTegic.value.DoubleValue
0.000

@<TRIPOS>MOLECULE
guest-5_confgen4.mol2 : confsearch ligand conformer 251
          22          22           1
SMALL
USER_CHARGES
 
@<TRIPOS>ATOM
       1    C1      20.644929   18.645571   21.356218 C.3        1 MOL1        -0.1685
       2    H1      20.911493   18.238794   20.371145 H          1 MOL1         0.0832
       3    H2      21.267098   18.108717   22.085173 H          1 MOL1         0.0832
       4    C2      19.143748   18.364059   21.599695 C.3        1 MOL1        -0.1685
       5    H3      18.541479   19.134938   21.099901 H          1 MOL1         0.0832
       6    H4      18.875255   17.418699   21.108570 H          1 MOL1         0.0832
       7    C3      18.727655   18.263295   23.087188 C.3        1 MOL1        -0.1685
       8    H5      18.930749   17.245336   23.446950 H          1 MOL1         0.0832
       9    H6      17.637836   18.388728   23.147004 H          1 MOL1         0.0832
      10    C4      19.404002   19.261812   24.058609 C.3        1 MOL1        -0.1761
      11    H7      18.794673   19.307383   24.971359 H          1 MOL1         0.0832
      12    H8      20.376600   18.859229   24.369858 H          1 MOL1         0.0832
      13    C5      19.597740   20.687956   23.496319 C.3        1 MOL1         0.1218
      14    H9      18.758919   20.938772   22.831533 H          1 MOL1         0.0789
      15    C6      20.931275   20.847150   22.731258 C.3        1 MOL1        -0.1761
      16    H10     21.125807   21.917759   22.582647 H          1 MOL1         0.0832
      17    H11     21.756169   20.472194   23.350970 H          1 MOL1         0.0832
      18    C7      20.981491   20.156083   21.347921 C.3        1 MOL1        -0.1685
      19    H12     20.305226   20.676730   20.656172 H          1 MOL1         0.0832
      20    H13     21.990970   20.287710   20.935109 H          1 MOL1         0.0832
      21    O1      19.608442   21.600277   24.586167 O.3        1 MOL1        -0.5509
      22    H14     20.364520   21.344435   25.153662 H          1 MOL1         0.3779
@<TRIPOS>BOND
    1     1     2    1
    2     1     3    1
    3     1     4    1
    4     4     5    1
    5     4     6    1
    6     4     7    1
    7     7     8    1
    8     7     9    1
    9     7    10    1
   10    10    11    1
   11    10    12    1
   12    10    13    1
   13    13    14    1
   14    13    15    1
   15    15    16    1
   16    15    17    1
   17     1    18    1
   18    15    18    1
   19    18    19    1
   20    18    20    1
   21    13    21    1
   22    21    22    1
@<TRIPOS>SUBSTRUCTURE
       1 MOL1            1 RESIDUE      1      MOL     
@<SCITEGIC>MOL_PROPERTY
VConf Rank
SciTegic.value.IntegerValue
251

@<SCITEGIC>MOL_PROPERTY
Conf_Id
SciTegic.value.IntegerValue
76

@<SCITEGIC>MOL_PROPERTY
Delta U+W
SciTegic.value.DoubleValue
-3.175

@<SCITEGIC>MOL_PROPERTY
U+W
SciTegic.value.DoubleValue
3.248

@<SCITEGIC>MOL_PROPERTY
Grad RMS
SciTegic.value.DoubleValue
0.000000

@<SCITEGIC>MOL_PROPERTY
U
SciTegic.value.DoubleValue
5.336

@<SCITEGIC>MOL_PROPERTY
W
SciTegic.value.DoubleValue
-2.088

@<SCITEGIC>MOL_PROPERTY
W(PB)
SciTegic.value.DoubleValue
-4.098

@<SCITEGIC>MOL_PROPERTY
W(SA)
SciTegic.value.DoubleValue
2.010

@<SCITEGIC>MOL_PROPERTY
Valence
SciTegic.value.DoubleValue
12.390

@<SCITEGIC>MOL_PROPERTY
Coulomb
SciTegic.value.DoubleValue
-9.270

@<SCITEGIC>MOL_PROPERTY
VdW
SciTegic.value.DoubleValue
2.216

@<SCITEGIC>MOL_PROPERTY
VdW6
SciTegic.value.DoubleValue
-8.967

@<SCITEGIC>MOL_PROPERTY
VdW12
SciTegic.value.DoubleValue
11.183

@<SCITEGIC>MOL_PROPERTY
Bond
SciTegic.value.DoubleValue
0.218

@<SCITEGIC>MOL_PROPERTY
Angle
SciTegic.value.DoubleValue
2.426

@<SCITEGIC>MOL_PROPERTY
Pdih
SciTegic.value.DoubleValue
9.745

@<SCITEGIC>MOL_PROPERTY
Idih
SciTegic.value.DoubleValue
0.000

@<SCITEGIC>MOL_PROPERTY
Tether
SciTegic.value.DoubleValue
0.000

@<TRIPOS>MOLECULE
guest-5_confgen4.mol2 : confsearch ligand conformer 252
          22          22           1
SMALL
USER_CHARGES
 
@<TRIPOS>ATOM
       1    C1      18.488807   20.433469   22.183780 C.3        1 MOL1        -0.1685
       2    H1      18.080280   21.361859   22.605656 H          1 MOL1         0.0832
       3    H2      17.824801   20.167431   21.350032 H          1 MOL1         0.0832
       4    C2      18.401536   19.330679   23.265868 C.3        1 MOL1        -0.1685
       5    H3      18.599022   19.769476   24.253256 H          1 MOL1         0.0832
       6    H4      17.362874   18.975112   23.305068 H          1 MOL1         0.0832
       7    C3      19.338555   18.120604   23.043932 C.3        1 MOL1        -0.1685
       8    H5      19.414707   17.872303   21.976514 H          1 MOL1         0.0832
       9    H6      18.885810   17.245260   23.528790 H          1 MOL1         0.0832
      10    C4      20.744092   18.328601   23.663032 C.3        1 MOL1        -0.1761
      11    H7      20.634698   18.645184   24.708173 H          1 MOL1         0.0832
      12    H8      21.257075   17.358644   23.701062 H          1 MOL1         0.0832
      13    C5      21.670185   19.328876   22.934404 C.3        1 MOL1         0.1218
      14    H9      22.536388   19.495083   23.591036 H          1 MOL1         0.0789
      15    C6      21.044343   20.716454   22.645550 C.3        1 MOL1        -0.1761
      16    H10     20.701317   21.172358   23.583293 H          1 MOL1         0.0832
      17    H11     21.844511   21.369719   22.274384 H          1 MOL1         0.0832
      18    C7      19.895130   20.717197   21.604145 C.3        1 MOL1        -0.1685
      19    H12     19.864965   21.698499   21.111642 H          1 MOL1         0.0832
      20    H13     20.111260   19.997076   20.804048 H          1 MOL1         0.0832
      21    O1      22.137288   18.740955   21.724368 O.3        1 MOL1        -0.5509
      22    H14     22.674576   19.422970   21.272194 H          1 MOL1         0.3779
@<TRIPOS>BOND
    1     1     2    1
    2     1     3    1
    3     1     4    1
    4     4     5    1
    5     4     6    1
    6     4     7    1
    7     7     8    1
    8     7     9    1
    9     7    10    1
   10    10    11    1
   11    10    12    1
   12    10    13    1
   13    13    14    1
   14    13    15    1
   15    15    16    1
   16    15    17    1
   17     1    18    1
   18    15    18    1
   19    18    19    1
   20    18    20    1
   21    13    21    1
   22    21    22    1
@<TRIPOS>SUBSTRUCTURE
       1 MOL1            1 RESIDUE      1      MOL     
@<SCITEGIC>MOL_PROPERTY
VConf Rank
SciTegic.value.IntegerValue
252

@<SCITEGIC>MOL_PROPERTY
Conf_Id
SciTegic.value.IntegerValue
95

@<SCITEGIC>MOL_PROPERTY
Delta U+W
SciTegic.value.DoubleValue
-2.289

@<SCITEGIC>MOL_PROPERTY
U+W
SciTegic.value.DoubleValue
4.134

@<SCITEGIC>MOL_PROPERTY
Grad RMS
SciTegic.value.DoubleValue
0.000000

@<SCITEGIC>MOL_PROPERTY
U
SciTegic.value.DoubleValue
6.373

@<SCITEGIC>MOL_PROPERTY
W
SciTegic.value.DoubleValue
-2.240

@<SCITEGIC>MOL_PROPERTY
W(PB)
SciTegic.value.DoubleValue
-4.254

@<SCITEGIC>MOL_PROPERTY
W(SA)
SciTegic.value.DoubleValue
2.015

@<SCITEGIC>MOL_PROPERTY
Valence
SciTegic.value.DoubleValue
12.093

@<SCITEGIC>MOL_PROPERTY
Coulomb
SciTegic.value.DoubleValue
-8.058

@<SCITEGIC>MOL_PROPERTY
VdW
SciTegic.value.DoubleValue
2.339

@<SCITEGIC>MOL_PROPERTY
VdW6
SciTegic.value.DoubleValue
-9.683

@<SCITEGIC>MOL_PROPERTY
VdW12
SciTegic.value.DoubleValue
12.022

@<SCITEGIC>MOL_PROPERTY
Bond
SciTegic.value.DoubleValue
0.268

@<SCITEGIC>MOL_PROPERTY
Angle
SciTegic.value.DoubleValue
3.005

@<SCITEGIC>MOL_PROPERTY
Pdih
SciTegic.value.DoubleValue
8.820

@<SCITEGIC>MOL_PROPERTY
Idih
SciTegic.value.DoubleValue
0.000

@<SCITEGIC>MOL_PROPERTY
Tether
SciTegic.value.DoubleValue
0.000

@<TRIPOS>MOLECULE
guest-5_confgen4.mol2 : confsearch ligand conformer 253
          22          22           1
SMALL
USER_CHARGES
 
@<TRIPOS>ATOM
       1    C1      20.580163   21.086275   21.592447 C.3        1 MOL1        -0.1685
       2    H1      21.392011   21.108549   20.852744 H          1 MOL1         0.0832
       3    H2      20.100482   22.073062   21.538152 H          1 MOL1         0.0832
       4    C2      21.208559   20.911277   22.995595 C.3        1 MOL1        -0.1685
       5    H3      22.083206   20.250605   22.924990 H          1 MOL1         0.0832
       6    H4      21.602221   21.885863   23.314989 H          1 MOL1         0.0832
       7    C3      20.246658   20.377640   24.082561 C.3        1 MOL1        -0.1685
       8    H5      19.239090   20.796724   23.956096 H          1 MOL1         0.0832
       9    H6      20.604659   20.733398   25.058111 H          1 MOL1         0.0832
      10    C4      20.200995   18.829492   24.132174 C.3        1 MOL1        -0.1761
      11    H7      21.226944   18.441230   24.171880 H          1 MOL1         0.0832
      12    H8      19.736816   18.522211   25.078270 H          1 MOL1         0.0832
      13    C5      19.452705   18.131748   22.973316 C.3        1 MOL1         0.1218
      14    H9      19.662027   17.055932   23.062231 H          1 MOL1         0.0789
      15    C6      19.892125   18.563933   21.551888 C.3        1 MOL1        -0.1761
      16    H10     20.968114   18.390110   21.423349 H          1 MOL1         0.0832
      17    H11     19.393013   17.893525   20.840362 H          1 MOL1         0.0832
      18    C7      19.538119   20.024210   21.167555 C.3        1 MOL1        -0.1685
      19    H12     19.421609   20.083369   20.077076 H          1 MOL1         0.0832
      20    H13     18.555469   20.290589   21.578724 H          1 MOL1         0.0832
      21    O1      18.050512   18.325436   23.132163 O.3        1 MOL1        -0.5509
      22    H14     17.830839   18.054638   24.046820 H          1 MOL1         0.3779
@<TRIPOS>BOND
    1     1     2    1
    2     1     3    1
    3     1     4    1
    4     4     5    1
    5     4     6    1
    6     4     7    1
    7     7     8    1
    8     7     9    1
    9     7    10    1
   10    10    11    1
   11    10    12    1
   12    10    13    1
   13    13    14    1
   14    13    15    1
   15    15    16    1
   16    15    17    1
   17     1    18    1
   18    15    18    1
   19    18    19    1
   20    18    20    1
   21    13    21    1
   22    21    22    1
@<TRIPOS>SUBSTRUCTURE
       1 MOL1            1 RESIDUE      1      MOL     
@<SCITEGIC>MOL_PROPERTY
VConf Rank
SciTegic.value.IntegerValue
253

@<SCITEGIC>MOL_PROPERTY
Conf_Id
SciTegic.value.IntegerValue
41

@<SCITEGIC>MOL_PROPERTY
Delta U+W
SciTegic.value.DoubleValue
-2.114

@<SCITEGIC>MOL_PROPERTY
U+W
SciTegic.value.DoubleValue
4.310

@<SCITEGIC>MOL_PROPERTY
Grad RMS
SciTegic.value.DoubleValue
0.000000

@<SCITEGIC>MOL_PROPERTY
U
SciTegic.value.DoubleValue
6.598

@<SCITEGIC>MOL_PROPERTY
W
SciTegic.value.DoubleValue
-2.289

@<SCITEGIC>MOL_PROPERTY
W(PB)
SciTegic.value.DoubleValue
-4.294

@<SCITEGIC>MOL_PROPERTY
W(SA)
SciTegic.value.DoubleValue
2.005

@<SCITEGIC>MOL_PROPERTY
Valence
SciTegic.value.DoubleValue
12.082

@<SCITEGIC>MOL_PROPERTY
Coulomb
SciTegic.value.DoubleValue
-7.801

@<SCITEGIC>MOL_PROPERTY
VdW
SciTegic.value.DoubleValue
2.317

@<SCITEGIC>MOL_PROPERTY
VdW6
SciTegic.value.DoubleValue
-9.658

@<SCITEGIC>MOL_PROPERTY
VdW12
SciTegic.value.DoubleValue
11.975

@<SCITEGIC>MOL_PROPERTY
Bond
SciTegic.value.DoubleValue
0.267

@<SCITEGIC>MOL_PROPERTY
Angle
SciTegic.value.DoubleValue
3.051

@<SCITEGIC>MOL_PROPERTY
Pdih
SciTegic.value.DoubleValue
8.764

@<SCITEGIC>MOL_PROPERTY
Idih
SciTegic.value.DoubleValue
0.000

@<SCITEGIC>MOL_PROPERTY
Tether
SciTegic.value.DoubleValue
0.000

@<TRIPOS>MOLECULE
guest-5_confgen4.mol2 : confsearch ligand conformer 254
          22          22           1
SMALL
USER_CHARGES
 
@<TRIPOS>ATOM
       1    C1      21.032603   20.596505   23.586490 C.3        1 MOL1        -0.1685
       2    H1      21.808652   21.083586   24.192336 H          1 MOL1         0.0832
       3    H2      20.491664   21.403019   23.072585 H          1 MOL1         0.0832
       4    C2      20.092454   19.832697   24.545710 C.3        1 MOL1        -0.1685
       5    H3      20.635267   18.993566   25.001555 H          1 MOL1         0.0832
       6    H4      19.819073   20.500080   25.374217 H          1 MOL1         0.0832
       7    C3      18.792162   19.312434   23.894720 C.3        1 MOL1        -0.1685
       8    H5      18.150863   20.163261   23.628788 H          1 MOL1         0.0832
       9    H6      18.234268   18.750395   24.655634 H          1 MOL1         0.0832
      10    C4      18.994519   18.393468   22.659512 C.3        1 MOL1        -0.1761
      11    H7      19.696800   17.585810   22.901890 H          1 MOL1         0.0832
      12    H8      18.036191   17.900418   22.451925 H          1 MOL1         0.0832
      13    C5      19.436680   19.100591   21.352415 C.3        1 MOL1         0.1218
      14    H9      19.226984   18.401931   20.529506 H          1 MOL1         0.0789
      15    C6      20.944228   19.449270   21.248200 C.3        1 MOL1        -0.1761
      16    H10     21.441893   18.639678   20.698698 H          1 MOL1         0.0832
      17    H11     21.062562   20.340382   20.617813 H          1 MOL1         0.0832
      18    C7      21.727408   19.667615   22.566477 C.3        1 MOL1        -0.1685
      19    H12     21.946471   18.698680   23.035083 H          1 MOL1         0.0832
      20    H13     22.704876   20.097609   22.308911 H          1 MOL1         0.0832
      21    O1      18.656904   20.272827   21.131662 O.3        1 MOL1        -0.5509
      22    H14     18.951367   20.651809   20.278682 H          1 MOL1         0.3779
@<TRIPOS>BOND
    1     1     2    1
    2     1     3    1
    3     1     4    1
    4     4     5    1
    5     4     6    1
    6     4     7    1
    7     7     8    1
    8     7     9    1
    9     7    10    1
   10    10    11    1
   11    10    12    1
   12    10    13    1
   13    13    14    1
   14    13    15    1
   15    15    16    1
   16    15    17    1
   17     1    18    1
   18    15    18    1
   19    18    19    1
   20    18    20    1
   21    13    21    1
   22    21    22    1
@<TRIPOS>SUBSTRUCTURE
       1 MOL1            1 RESIDUE      1      MOL     
@<SCITEGIC>MOL_PROPERTY
VConf Rank
SciTegic.value.IntegerValue
254

@<SCITEGIC>MOL_PROPERTY
Conf_Id
SciTegic.value.IntegerValue
104

@<SCITEGIC>MOL_PROPERTY
Delta U+W
SciTegic.value.DoubleValue
-1.172

@<SCITEGIC>MOL_PROPERTY
U+W
SciTegic.value.DoubleValue
5.252

@<SCITEGIC>MOL_PROPERTY
Grad RMS
SciTegic.value.DoubleValue
0.000000

@<SCITEGIC>MOL_PROPERTY
U
SciTegic.value.DoubleValue
7.482

@<SCITEGIC>MOL_PROPERTY
W
SciTegic.value.DoubleValue
-2.230

@<SCITEGIC>MOL_PROPERTY
W(PB)
SciTegic.value.DoubleValue
-4.220

@<SCITEGIC>MOL_PROPERTY
W(SA)
SciTegic.value.DoubleValue
1.990

@<SCITEGIC>MOL_PROPERTY
Valence
SciTegic.value.DoubleValue
12.309

@<SCITEGIC>MOL_PROPERTY
Coulomb
SciTegic.value.DoubleValue
-7.084

@<SCITEGIC>MOL_PROPERTY
VdW
SciTegic.value.DoubleValue
2.258

@<SCITEGIC>MOL_PROPERTY
VdW6
SciTegic.value.DoubleValue
-9.770

@<SCITEGIC>MOL_PROPERTY
VdW12
SciTegic.value.DoubleValue
12.028

@<SCITEGIC>MOL_PROPERTY
Bond
SciTegic.value.DoubleValue
0.284

@<SCITEGIC>MOL_PROPERTY
Angle
SciTegic.value.DoubleValue
3.491

@<SCITEGIC>MOL_PROPERTY
Pdih
SciTegic.value.DoubleValue
8.535

@<SCITEGIC>MOL_PROPERTY
Idih
SciTegic.value.DoubleValue
0.000

@<SCITEGIC>MOL_PROPERTY
Tether
SciTegic.value.DoubleValue
0.000

@<TRIPOS>MOLECULE
guest-5_confgen4.mol2 : confsearch ligand conformer 255
          22          22           1
SMALL
USER_CHARGES
 
@<TRIPOS>ATOM
       1    C1      19.707146   21.128042   23.122581 C.3        1 MOL1        -0.1685
       2    H1      19.469726   20.836807   24.154714 H          1 MOL1         0.0832
       3    H2      19.531528   22.211057   23.066235 H          1 MOL1         0.0832
       4    C2      18.750604   20.441286   22.121143 C.3        1 MOL1        -0.1685
       5    H3      17.798195   20.989118   22.114416 H          1 MOL1         0.0832
       6    H4      19.148701   20.551588   21.103946 H          1 MOL1         0.0832
       7    C3      18.435738   18.951102   22.407302 C.3        1 MOL1        -0.1685
       8    H5      18.155588   18.467002   21.461534 H          1 MOL1         0.0832
       9    H6      17.537196   18.900686   23.037389 H          1 MOL1         0.0832
      10    C4      19.541578   18.110795   23.101711 C.3        1 MOL1        -0.1761
      11    H7      19.537523   18.331041   24.177086 H          1 MOL1         0.0832
      12    H8      19.261773   17.052185   23.023881 H          1 MOL1         0.0832
      13    C5      20.984232   18.266874   22.568449 C.3        1 MOL1         0.1218
      14    H9      21.540937   17.365590   22.862808 H          1 MOL1         0.0789
      15    C6      21.726114   19.472535   23.188338 C.3        1 MOL1        -0.1761
      16    H10     21.709193   19.371628   24.281313 H          1 MOL1         0.0832
      17    H11     22.783941   19.407382   22.901978 H          1 MOL1         0.0832
      18    C7      21.200982   20.878538   22.806001 C.3        1 MOL1        -0.1685
      19    H12     21.798053   21.620731   23.353145 H          1 MOL1         0.0832
      20    H13     21.393683   21.071431   21.741982 H          1 MOL1         0.0832
      21    O1      20.984399   18.367434   21.152802 O.3        1 MOL1        -0.5509
      22    H14     20.406883   19.134668   20.968104 H          1 MOL1         0.3779
@<TRIPOS>BOND
    1     1     2    1
    2     1     3    1
    3     1     4    1
    4     4     5    1
    5     4     6    1
    6     4     7    1
    7     7     8    1
    8     7     9    1
    9     7    10    1
   10    10    11    1
   11    10    12    1
   12    10    13    1
   13    13    14    1
   14    13    15    1
   15    15    16    1
   16    15    17    1
   17     1    18    1
   18    15    18    1
   19    18    19    1
   20    18    20    1
   21    13    21    1
   22    21    22    1
@<TRIPOS>SUBSTRUCTURE
       1 MOL1            1 RESIDUE      1      MOL     
@<SCITEGIC>MOL_PROPERTY
VConf Rank
SciTegic.value.IntegerValue
255

@<SCITEGIC>MOL_PROPERTY
Conf_Id
SciTegic.value.IntegerValue
99

@<SCITEGIC>MOL_PROPERTY
Delta U+W
SciTegic.value.DoubleValue
-3.852

@<SCITEGIC>MOL_PROPERTY
U+W
SciTegic.value.DoubleValue
2.572

@<SCITEGIC>MOL_PROPERTY
Grad RMS
SciTegic.value.DoubleValue
0.000000

@<SCITEGIC>MOL_PROPERTY
U
SciTegic.value.DoubleValue
3.922

@<SCITEGIC>MOL_PROPERTY
W
SciTegic.value.DoubleValue
-1.350

@<SCITEGIC>MOL_PROPERTY
W(PB)
SciTegic.value.DoubleValue
-3.345

@<SCITEGIC>MOL_PROPERTY
W(SA)
SciTegic.value.DoubleValue
1.995

@<SCITEGIC>MOL_PROPERTY
Valence
SciTegic.value.DoubleValue
12.571

@<SCITEGIC>MOL_PROPERTY
Coulomb
SciTegic.value.DoubleValue
-10.581

@<SCITEGIC>MOL_PROPERTY
VdW
SciTegic.value.DoubleValue
1.932

@<SCITEGIC>MOL_PROPERTY
VdW6
SciTegic.value.DoubleValue
-10.483

@<SCITEGIC>MOL_PROPERTY
VdW12
SciTegic.value.DoubleValue
12.415

@<SCITEGIC>MOL_PROPERTY
Bond
SciTegic.value.DoubleValue
0.268

@<SCITEGIC>MOL_PROPERTY
Angle
SciTegic.value.DoubleValue
3.728

@<SCITEGIC>MOL_PROPERTY
Pdih
SciTegic.value.DoubleValue
8.575

@<SCITEGIC>MOL_PROPERTY
Idih
SciTegic.value.DoubleValue
0.000

@<SCITEGIC>MOL_PROPERTY
Tether
SciTegic.value.DoubleValue
0.000

@<TRIPOS>MOLECULE
guest-5_confgen4.mol2 : confsearch ligand conformer 256
          22          22           1
SMALL
USER_CHARGES
 
@<TRIPOS>ATOM
       1    C1      19.485479   19.612083   24.236490 C.3        1 MOL1        -0.1685
       2    H1      18.667601   19.517452   24.964097 H          1 MOL1         0.0832
       3    H2      20.381303   19.806466   24.841280 H          1 MOL1         0.0832
       4    C2      19.176007   20.837221   23.327031 C.3        1 MOL1        -0.1685
       5    H3      18.224263   21.272963   23.661101 H          1 MOL1         0.0832
       6    H4      19.921475   21.627093   23.489612 H          1 MOL1         0.0832
       7    C3      19.053983   20.543108   21.810008 C.3        1 MOL1        -0.1685
       8    H5      18.647687   21.435983   21.315616 H          1 MOL1         0.0832
       9    H6      18.296786   19.767008   21.643000 H          1 MOL1         0.0832
      10    C4      20.371608   20.155491   21.083066 C.3        1 MOL1        -0.1761
      11    H7      20.110344   19.607891   20.168398 H          1 MOL1         0.0832
      12    H8      20.862053   21.076168   20.739823 H          1 MOL1         0.0832
      13    C5      21.423401   19.330313   21.864712 C.3        1 MOL1         0.1218
      14    H9      22.157269   18.970018   21.129593 H          1 MOL1         0.0789
      15    C6      20.894779   18.085854   22.619712 C.3        1 MOL1        -0.1761
      16    H10     20.695569   17.293549   21.886698 H          1 MOL1         0.0832
      17    H11     21.714283   17.704564   23.243433 H          1 MOL1         0.0832
      18    C7      19.633602   18.249366   23.512738 C.3        1 MOL1        -0.1685
      19    H12     18.732326   18.043942   22.921916 H          1 MOL1         0.0832
      20    H13     19.653561   17.454771   24.270990 H          1 MOL1         0.0832
      21    O1      22.116690   20.176483   22.768366 O.3        1 MOL1        -0.5509
      22    H14     21.425803   20.468115   23.396507 H          1 MOL1         0.3779
@<TRIPOS>BOND
    1     1     2    1
    2     1     3    1
    3     1     4    1
    4     4     5    1
    5     4     6    1
    6     4     7    1
    7     7     8    1
    8     7     9    1
    9     7    10    1
   10    10    11    1
   11    10    12    1
   12    10    13    1
   13    13    14    1
   14    13    15    1
   15    15    16    1
   16    15    17    1
   17     1    18    1
   18    15    18    1
   19    18    19    1
   20    18    20    1
   21    13    21    1
   22    21    22    1
@<TRIPOS>SUBSTRUCTURE
       1 MOL1            1 RESIDUE      1      MOL     
@<SCITEGIC>MOL_PROPERTY
VConf Rank
SciTegic.value.IntegerValue
256

@<SCITEGIC>MOL_PROPERTY
Conf_Id
SciTegic.value.IntegerValue
98

@<SCITEGIC>MOL_PROPERTY
Delta U+W
SciTegic.value.DoubleValue
0.930

@<SCITEGIC>MOL_PROPERTY
U+W
SciTegic.value.DoubleValue
7.353

@<SCITEGIC>MOL_PROPERTY
Grad RMS
SciTegic.value.DoubleValue
0.000000

@<SCITEGIC>MOL_PROPERTY
U
SciTegic.value.DoubleValue
8.455

@<SCITEGIC>MOL_PROPERTY
W
SciTegic.value.DoubleValue
-1.102

@<SCITEGIC>MOL_PROPERTY
W(PB)
SciTegic.value.DoubleValue
-3.101

@<SCITEGIC>MOL_PROPERTY
W(SA)
SciTegic.value.DoubleValue
2.000

@<SCITEGIC>MOL_PROPERTY
Valence
SciTegic.value.DoubleValue
15.601

@<SCITEGIC>MOL_PROPERTY
Coulomb
SciTegic.value.DoubleValue
-10.573

@<SCITEGIC>MOL_PROPERTY
VdW
SciTegic.value.DoubleValue
3.427

@<SCITEGIC>MOL_PROPERTY
VdW6
SciTegic.value.DoubleValue
-11.360

@<SCITEGIC>MOL_PROPERTY
VdW12
SciTegic.value.DoubleValue
14.787

@<SCITEGIC>MOL_PROPERTY
Bond
SciTegic.value.DoubleValue
0.471

@<SCITEGIC>MOL_PROPERTY
Angle
SciTegic.value.DoubleValue
5.445

@<SCITEGIC>MOL_PROPERTY
Pdih
SciTegic.value.DoubleValue
9.685

@<SCITEGIC>MOL_PROPERTY
Idih
SciTegic.value.DoubleValue
0.000

@<SCITEGIC>MOL_PROPERTY
Tether
SciTegic.value.DoubleValue
0.000

@<TRIPOS>MOLECULE
guest-5_confgen4.mol2 : confsearch ligand conformer 257
          22          22           1
SMALL
USER_CHARGES
 
@<TRIPOS>ATOM
       1    C1      21.119647   19.262414   21.365937 C.3        1 MOL1        -0.1685
       2    H1      20.773312   20.212174   20.938399 H          1 MOL1         0.0832
       3    H2      21.914203   18.918332   20.689919 H          1 MOL1         0.0832
       4    C2      19.967731   18.225765   21.341240 C.3        1 MOL1        -0.1685
       5    H3      19.659236   18.099190   20.294491 H          1 MOL1         0.0832
       6    H4      20.348129   17.245737   21.659777 H          1 MOL1         0.0832
       7    C3      18.706844   18.580392   22.177331 C.3        1 MOL1        -0.1685
       8    H5      18.697685   18.000126   23.109115 H          1 MOL1         0.0832
       9    H6      17.821613   18.239579   21.623394 H          1 MOL1         0.0832
      10    C4      18.538260   20.087679   22.505013 C.3        1 MOL1        -0.1761
      11    H7      18.612058   20.668177   21.577004 H          1 MOL1         0.0832
      12    H8      17.511229   20.251030   22.858442 H          1 MOL1         0.0832
      13    C5      19.530717   20.670941   23.553204 C.3        1 MOL1         0.1218
      14    H9      19.913962   21.624765   23.162808 H          1 MOL1         0.0789
      15    C6      20.742048   19.773795   23.911069 C.3        1 MOL1        -0.1761
      16    H10     21.293716   20.235546   24.740229 H          1 MOL1         0.0832
      17    H11     20.386862   18.813789   24.304541 H          1 MOL1         0.0832
      18    C7      21.744255   19.519877   22.757417 C.3        1 MOL1        -0.1685
      19    H12     22.417667   20.383900   22.674986 H          1 MOL1         0.0832
      20    H13     22.380475   18.666964   23.030244 H          1 MOL1         0.0832
      21    O1      18.816682   20.923630   24.757977 O.3        1 MOL1        -0.5509
      22    H14     19.448921   21.341999   25.378799 H          1 MOL1         0.3779
@<TRIPOS>BOND
    1     1     2    1
    2     1     3    1
    3     1     4    1
    4     4     5    1
    5     4     6    1
    6     4     7    1
    7     7     8    1
    8     7     9    1
    9     7    10    1
   10    10    11    1
   11    10    12    1
   12    10    13    1
   13    13    14    1
   14    13    15    1
   15    15    16    1
   16    15    17    1
   17     1    18    1
   18    15    18    1
   19    18    19    1
   20    18    20    1
   21    13    21    1
   22    21    22    1
@<TRIPOS>SUBSTRUCTURE
       1 MOL1            1 RESIDUE      1      MOL     
@<SCITEGIC>MOL_PROPERTY
VConf Rank
SciTegic.value.IntegerValue
257

@<SCITEGIC>MOL_PROPERTY
Conf_Id
SciTegic.value.IntegerValue
141

@<SCITEGIC>MOL_PROPERTY
Delta U+W
SciTegic.value.DoubleValue
0.000

@<SCITEGIC>MOL_PROPERTY
U+W
SciTegic.value.DoubleValue
6.423

@<SCITEGIC>MOL_PROPERTY
Grad RMS
SciTegic.value.DoubleValue
0.000000

@<SCITEGIC>MOL_PROPERTY
U
SciTegic.value.DoubleValue
8.781

@<SCITEGIC>MOL_PROPERTY
W
SciTegic.value.DoubleValue
-2.358

@<SCITEGIC>MOL_PROPERTY
W(PB)
SciTegic.value.DoubleValue
-4.373

@<SCITEGIC>MOL_PROPERTY
W(SA)
SciTegic.value.DoubleValue
2.015

@<SCITEGIC>MOL_PROPERTY
Valence
SciTegic.value.DoubleValue
13.328

@<SCITEGIC>MOL_PROPERTY
Coulomb
SciTegic.value.DoubleValue
-8.387

@<SCITEGIC>MOL_PROPERTY
VdW
SciTegic.value.DoubleValue
3.840

@<SCITEGIC>MOL_PROPERTY
VdW6
SciTegic.value.DoubleValue
-9.744

@<SCITEGIC>MOL_PROPERTY
VdW12
SciTegic.value.DoubleValue
13.584

@<SCITEGIC>MOL_PROPERTY
Bond
SciTegic.value.DoubleValue
0.436

@<SCITEGIC>MOL_PROPERTY
Angle
SciTegic.value.DoubleValue
3.478

@<SCITEGIC>MOL_PROPERTY
Pdih
SciTegic.value.DoubleValue
9.415

@<SCITEGIC>MOL_PROPERTY
Idih
SciTegic.value.DoubleValue
0.000

@<SCITEGIC>MOL_PROPERTY
Tether
SciTegic.value.DoubleValue
0.000

@<TRIPOS>MOLECULE
guest-5_confgen4.mol2 : confsearch ligand conformer 258
          22          22           1
SMALL
USER_CHARGES
 
@<TRIPOS>ATOM
       1    C1      18.248635   19.782206   22.532005 C.3        1 MOL1        -0.1685
       2    H1      18.358315   19.848145   21.441028 H          1 MOL1         0.0832
       3    H2      17.168728   19.814668   22.731137 H          1 MOL1         0.0832
       4    C2      18.891467   21.006165   23.227955 C.3        1 MOL1        -0.1685
       5    H3      18.295627   21.897584   22.988783 H          1 MOL1         0.0832
       6    H4      18.821398   20.883950   24.317465 H          1 MOL1         0.0832
       7    C3      20.360648   21.289614   22.838734 C.3        1 MOL1        -0.1685
       8    H5      20.718977   22.132642   23.445143 H          1 MOL1         0.0832
       9    H6      20.402223   21.631924   21.795636 H          1 MOL1         0.0832
      10    C4      21.329453   20.096978   23.029043 C.3        1 MOL1        -0.1761
      11    H7      22.353342   20.484414   22.945204 H          1 MOL1         0.0832
      12    H8      21.241106   19.684179   24.042349 H          1 MOL1         0.0832
      13    C5      21.124724   18.987742   21.972961 C.3        1 MOL1         0.1218
      14    H9      20.808544   19.461870   21.032707 H          1 MOL1         0.0789
      15    C6      20.072529   17.922389   22.356634 C.3        1 MOL1        -0.1761
      16    H10     19.782595   17.397140   21.437449 H          1 MOL1         0.0832
      17    H11     20.539869   17.165579   23.000794 H          1 MOL1         0.0832
      18    C7      18.791791   18.434543   23.061938 C.3        1 MOL1        -0.1685
      19    H12     18.013229   17.667552   22.950624 H          1 MOL1         0.0832
      20    H13     18.973989   18.513739   24.142328 H          1 MOL1         0.0832
      21    O1      22.364807   18.325033   21.757956 O.3        1 MOL1        -0.5509
      22    H14     22.997062   19.004453   21.442899 H          1 MOL1         0.3779
@<TRIPOS>BOND
    1     1     2    1
    2     1     3    1
    3     1     4    1
    4     4     5    1
    5     4     6    1
    6     4     7    1
    7     7     8    1
    8     7     9    1
    9     7    10    1
   10    10    11    1
   11    10    12    1
   12    10    13    1
   13    13    14    1
   14    13    15    1
   15    15    16    1
   16    15    17    1
   17     1    18    1
   18    15    18    1
   19    18    19    1
   20    18    20    1
   21    13    21    1
   22    21    22    1
@<TRIPOS>SUBSTRUCTURE
       1 MOL1            1 RESIDUE      1      MOL     
@<SCITEGIC>MOL_PROPERTY
VConf Rank
SciTegic.value.IntegerValue
258

@<SCITEGIC>MOL_PROPERTY
Conf_Id
SciTegic.value.IntegerValue
144

@<SCITEGIC>MOL_PROPERTY
Delta U+W
SciTegic.value.DoubleValue
-3.291

@<SCITEGIC>MOL_PROPERTY
U+W
SciTegic.value.DoubleValue
3.132

@<SCITEGIC>MOL_PROPERTY
Grad RMS
SciTegic.value.DoubleValue
0.000000

@<SCITEGIC>MOL_PROPERTY
U
SciTegic.value.DoubleValue
5.411

@<SCITEGIC>MOL_PROPERTY
W
SciTegic.value.DoubleValue
-2.279

@<SCITEGIC>MOL_PROPERTY
W(PB)
SciTegic.value.DoubleValue
-4.300

@<SCITEGIC>MOL_PROPERTY
W(SA)
SciTegic.value.DoubleValue
2.021

@<SCITEGIC>MOL_PROPERTY
Valence
SciTegic.value.DoubleValue
11.909

@<SCITEGIC>MOL_PROPERTY
Coulomb
SciTegic.value.DoubleValue
-8.733

@<SCITEGIC>MOL_PROPERTY
VdW
SciTegic.value.DoubleValue
2.236

@<SCITEGIC>MOL_PROPERTY
VdW6
SciTegic.value.DoubleValue
-8.936

@<SCITEGIC>MOL_PROPERTY
VdW12
SciTegic.value.DoubleValue
11.172

@<SCITEGIC>MOL_PROPERTY
Bond
SciTegic.value.DoubleValue
0.223

@<SCITEGIC>MOL_PROPERTY
Angle
SciTegic.value.DoubleValue
2.457

@<SCITEGIC>MOL_PROPERTY
Pdih
SciTegic.value.DoubleValue
9.228

@<SCITEGIC>MOL_PROPERTY
Idih
SciTegic.value.DoubleValue
0.000

@<SCITEGIC>MOL_PROPERTY
Tether
SciTegic.value.DoubleValue
0.000

@<TRIPOS>MOLECULE
guest-5_confgen4.mol2 : confsearch ligand conformer 259
          22          22           1
SMALL
USER_CHARGES
 
@<TRIPOS>ATOM
       1    C1      21.626494   19.160288   22.716739 C.3        1 MOL1        -0.1685
       2    H1      22.695479   19.043058   22.492198 H          1 MOL1         0.0832
       3    H2      21.474156   18.716500   23.709980 H          1 MOL1         0.0832
       4    C2      20.824575   18.391417   21.640712 C.3        1 MOL1        -0.1685
       5    H3      20.721977   19.017812   20.744120 H          1 MOL1         0.0832
       6    H4      21.406867   17.516243   21.321330 H          1 MOL1         0.0832
       7    C3      19.428767   17.896618   22.091066 C.3        1 MOL1        -0.1685
       8    H5      19.542493   16.942517   22.623676 H          1 MOL1         0.0832
       9    H6      18.840221   17.667844   21.192015 H          1 MOL1         0.0832
      10    C4      18.617329   18.858676   22.993370 C.3        1 MOL1        -0.1761
      11    H7      17.564876   18.546553   22.956054 H          1 MOL1         0.0832
      12    H8      18.930698   18.724574   24.036783 H          1 MOL1         0.0832
      13    C5      18.725615   20.353029   22.615511 C.3        1 MOL1         0.1218
      14    H9      18.815176   20.451374   21.524284 H          1 MOL1         0.0789
      15    C6      19.922811   21.051832   23.299158 C.3        1 MOL1        -0.1761
      16    H10     19.799194   22.138567   23.199877 H          1 MOL1         0.0832
      17    H11     19.903343   20.841555   24.376419 H          1 MOL1         0.0832
      18    C7      21.313103   20.675701   22.734065 C.3        1 MOL1        -0.1685
      19    H12     21.414809   21.080907   21.718000 H          1 MOL1         0.0832
      20    H13     22.077582   21.184563   23.336908 H          1 MOL1         0.0832
      21    O1      17.537757   21.008310   23.039553 O.3        1 MOL1        -0.5509
      22    H14     17.492751   20.897687   24.011611 H          1 MOL1         0.3779
@<TRIPOS>BOND
    1     1     2    1
    2     1     3    1
    3     1     4    1
    4     4     5    1
    5     4     6    1
    6     4     7    1
    7     7     8    1
    8     7     9    1
    9     7    10    1
   10    10    11    1
   11    10    12    1
   12    10    13    1
   13    13    14    1
   14    13    15    1
   15    15    16    1
   16    15    17    1
   17     1    18    1
   18    15    18    1
   19    18    19    1
   20    18    20    1
   21    13    21    1
   22    21    22    1
@<TRIPOS>SUBSTRUCTURE
       1 MOL1            1 RESIDUE      1      MOL     
@<SCITEGIC>MOL_PROPERTY
VConf Rank
SciTegic.value.IntegerValue
259

@<SCITEGIC>MOL_PROPERTY
Conf_Id
SciTegic.value.IntegerValue
76

@<SCITEGIC>MOL_PROPERTY
Delta U+W
SciTegic.value.DoubleValue
-3.175

@<SCITEGIC>MOL_PROPERTY
U+W
SciTegic.value.DoubleValue
3.248

@<SCITEGIC>MOL_PROPERTY
Grad RMS
SciTegic.value.DoubleValue
0.000000

@<SCITEGIC>MOL_PROPERTY
U
SciTegic.value.DoubleValue
5.336

@<SCITEGIC>MOL_PROPERTY
W
SciTegic.value.DoubleValue
-2.088

@<SCITEGIC>MOL_PROPERTY
W(PB)
SciTegic.value.DoubleValue
-4.098

@<SCITEGIC>MOL_PROPERTY
W(SA)
SciTegic.value.DoubleValue
2.010

@<SCITEGIC>MOL_PROPERTY
Valence
SciTegic.value.DoubleValue
12.390

@<SCITEGIC>MOL_PROPERTY
Coulomb
SciTegic.value.DoubleValue
-9.270

@<SCITEGIC>MOL_PROPERTY
VdW
SciTegic.value.DoubleValue
2.216

@<SCITEGIC>MOL_PROPERTY
VdW6
SciTegic.value.DoubleValue
-8.967

@<SCITEGIC>MOL_PROPERTY
VdW12
SciTegic.value.DoubleValue
11.183

@<SCITEGIC>MOL_PROPERTY
Bond
SciTegic.value.DoubleValue
0.218

@<SCITEGIC>MOL_PROPERTY
Angle
SciTegic.value.DoubleValue
2.426

@<SCITEGIC>MOL_PROPERTY
Pdih
SciTegic.value.DoubleValue
9.745

@<SCITEGIC>MOL_PROPERTY
Idih
SciTegic.value.DoubleValue
0.000

@<SCITEGIC>MOL_PROPERTY
Tether
SciTegic.value.DoubleValue
0.000

@<TRIPOS>MOLECULE
guest-5_confgen4.mol2 : confsearch ligand conformer 260
          22          22           1
SMALL
USER_CHARGES
 
@<TRIPOS>ATOM
       1    C1      18.316348   18.940495   22.431747 C.3        1 MOL1        -0.1685
       2    H1      17.817062   18.736258   21.474782 H          1 MOL1         0.0832
       3    H2      17.606228   18.630656   23.210557 H          1 MOL1         0.0832
       4    C2      18.546475   20.466821   22.541499 C.3        1 MOL1        -0.1685
       5    H3      18.790914   20.872897   21.550626 H          1 MOL1         0.0832
       6    H4      17.593192   20.934363   22.823347 H          1 MOL1         0.0832
       7    C3      19.634002   20.893364   23.554855 C.3        1 MOL1        -0.1685
       8    H5      19.616160   20.250321   24.445368 H          1 MOL1         0.0832
       9    H6      19.394783   21.906278   23.905669 H          1 MOL1         0.0832
      10    C4      21.052528   20.932565   22.931695 C.3        1 MOL1        -0.1761
      11    H7      21.023878   21.521898   22.006288 H          1 MOL1         0.0832
      12    H8      21.718164   21.481839   23.610400 H          1 MOL1         0.0832
      13    C5      21.704108   19.563794   22.630019 C.3        1 MOL1         0.1218
      14    H9      22.606373   19.766443   22.035084 H          1 MOL1         0.0789
      15    C6      20.828352   18.583240   21.810231 C.3        1 MOL1        -0.1761
      16    H10     20.534864   19.050742   20.861450 H          1 MOL1         0.0832
      17    H11     21.458105   17.727141   21.535833 H          1 MOL1         0.0832
      18    C7      19.573830   18.046265   22.547149 C.3        1 MOL1        -0.1685
      19    H12     19.322169   17.056916   22.141839 H          1 MOL1         0.0832
      20    H13     19.803580   17.876112   23.607198 H          1 MOL1         0.0832
      21    O1      22.106706   18.955370   23.853031 O.3        1 MOL1        -0.5509
      22    H14     22.464401   18.074031   23.621560 H          1 MOL1         0.3779
@<TRIPOS>BOND
    1     1     2    1
    2     1     3    1
    3     1     4    1
    4     4     5    1
    5     4     6    1
    6     4     7    1
    7     7     8    1
    8     7     9    1
    9     7    10    1
   10    10    11    1
   11    10    12    1
   12    10    13    1
   13    13    14    1
   14    13    15    1
   15    15    16    1
   16    15    17    1
   17     1    18    1
   18    15    18    1
   19    18    19    1
   20    18    20    1
   21    13    21    1
   22    21    22    1
@<TRIPOS>SUBSTRUCTURE
       1 MOL1            1 RESIDUE      1      MOL     
@<SCITEGIC>MOL_PROPERTY
VConf Rank
SciTegic.value.IntegerValue
260

@<SCITEGIC>MOL_PROPERTY
Conf_Id
SciTegic.value.IntegerValue
95

@<SCITEGIC>MOL_PROPERTY
Delta U+W
SciTegic.value.DoubleValue
-2.289

@<SCITEGIC>MOL_PROPERTY
U+W
SciTegic.value.DoubleValue
4.134

@<SCITEGIC>MOL_PROPERTY
Grad RMS
SciTegic.value.DoubleValue
0.000000

@<SCITEGIC>MOL_PROPERTY
U
SciTegic.value.DoubleValue
6.373

@<SCITEGIC>MOL_PROPERTY
W
SciTegic.value.DoubleValue
-2.240

@<SCITEGIC>MOL_PROPERTY
W(PB)
SciTegic.value.DoubleValue
-4.254

@<SCITEGIC>MOL_PROPERTY
W(SA)
SciTegic.value.DoubleValue
2.015

@<SCITEGIC>MOL_PROPERTY
Valence
SciTegic.value.DoubleValue
12.093

@<SCITEGIC>MOL_PROPERTY
Coulomb
SciTegic.value.DoubleValue
-8.058

@<SCITEGIC>MOL_PROPERTY
VdW
SciTegic.value.DoubleValue
2.339

@<SCITEGIC>MOL_PROPERTY
VdW6
SciTegic.value.DoubleValue
-9.683

@<SCITEGIC>MOL_PROPERTY
VdW12
SciTegic.value.DoubleValue
12.022

@<SCITEGIC>MOL_PROPERTY
Bond
SciTegic.value.DoubleValue
0.268

@<SCITEGIC>MOL_PROPERTY
Angle
SciTegic.value.DoubleValue
3.005

@<SCITEGIC>MOL_PROPERTY
Pdih
SciTegic.value.DoubleValue
8.820

@<SCITEGIC>MOL_PROPERTY
Idih
SciTegic.value.DoubleValue
0.000

@<SCITEGIC>MOL_PROPERTY
Tether
SciTegic.value.DoubleValue
0.000

@<TRIPOS>MOLECULE
guest-5_confgen4.mol2 : confsearch ligand conformer 261
          22          22           1
SMALL
USER_CHARGES
 
@<TRIPOS>ATOM
       1    C1      20.926081   18.121167   23.484221 C.3        1 MOL1        -0.1685
       2    H1      21.347615   18.031973   24.494720 H          1 MOL1         0.0832
       3    H2      21.077858   17.141676   23.010564 H          1 MOL1         0.0832
       4    C2      21.743267   19.183537   22.710977 C.3        1 MOL1        -0.1685
       5    H3      22.040660   19.987549   23.397709 H          1 MOL1         0.0832
       6    H4      22.681707   18.716568   22.382238 H          1 MOL1         0.0832
       7    C3      21.028802   19.793624   21.482624 C.3        1 MOL1        -0.1685
       8    H5      20.435649   19.034050   20.955333 H          1 MOL1         0.0832
       9    H6      21.797686   20.127078   20.772659 H          1 MOL1         0.0832
      10    C4      20.157935   21.022425   21.847243 C.3        1 MOL1        -0.1761
      11    H7      20.756145   21.721352   22.446027 H          1 MOL1         0.0832
      12    H8      19.913101   21.565145   20.925020 H          1 MOL1         0.0832
      13    C5      18.841756   20.725817   22.601850 C.3        1 MOL1         0.1218
      14    H9      18.440860   21.694370   22.933947 H          1 MOL1         0.0789
      15    C6      18.992386   19.839867   23.863887 C.3        1 MOL1        -0.1761
      16    H10     19.696568   20.304454   24.565867 H          1 MOL1         0.0832
      17    H11     18.020444   19.834158   24.373911 H          1 MOL1         0.0832
      18    C7      19.402499   18.369025   23.592093 C.3        1 MOL1        -0.1685
      19    H12     19.014974   17.739202   24.404106 H          1 MOL1         0.0832
      20    H13     18.907214   18.005558   22.682035 H          1 MOL1         0.0832
      21    O1      17.903444   20.141977   21.703187 O.3        1 MOL1        -0.5509
      22    H14     17.859685   20.729245   20.921274 H          1 MOL1         0.3779
@<TRIPOS>BOND
    1     1     2    1
    2     1     3    1
    3     1     4    1
    4     4     5    1
    5     4     6    1
    6     4     7    1
    7     7     8    1
    8     7     9    1
    9     7    10    1
   10    10    11    1
   11    10    12    1
   12    10    13    1
   13    13    14    1
   14    13    15    1
   15    15    16    1
   16    15    17    1
   17     1    18    1
   18    15    18    1
   19    18    19    1
   20    18    20    1
   21    13    21    1
   22    21    22    1
@<TRIPOS>SUBSTRUCTURE
       1 MOL1            1 RESIDUE      1      MOL     
@<SCITEGIC>MOL_PROPERTY
VConf Rank
SciTegic.value.IntegerValue
261

@<SCITEGIC>MOL_PROPERTY
Conf_Id
SciTegic.value.IntegerValue
41

@<SCITEGIC>MOL_PROPERTY
Delta U+W
SciTegic.value.DoubleValue
-2.114

@<SCITEGIC>MOL_PROPERTY
U+W
SciTegic.value.DoubleValue
4.310

@<SCITEGIC>MOL_PROPERTY
Grad RMS
SciTegic.value.DoubleValue
0.000000

@<SCITEGIC>MOL_PROPERTY
U
SciTegic.value.DoubleValue
6.598

@<SCITEGIC>MOL_PROPERTY
W
SciTegic.value.DoubleValue
-2.289

@<SCITEGIC>MOL_PROPERTY
W(PB)
SciTegic.value.DoubleValue
-4.294

@<SCITEGIC>MOL_PROPERTY
W(SA)
SciTegic.value.DoubleValue
2.005

@<SCITEGIC>MOL_PROPERTY
Valence
SciTegic.value.DoubleValue
12.082

@<SCITEGIC>MOL_PROPERTY
Coulomb
SciTegic.value.DoubleValue
-7.801

@<SCITEGIC>MOL_PROPERTY
VdW
SciTegic.value.DoubleValue
2.317

@<SCITEGIC>MOL_PROPERTY
VdW6
SciTegic.value.DoubleValue
-9.658

@<SCITEGIC>MOL_PROPERTY
VdW12
SciTegic.value.DoubleValue
11.975

@<SCITEGIC>MOL_PROPERTY
Bond
SciTegic.value.DoubleValue
0.267

@<SCITEGIC>MOL_PROPERTY
Angle
SciTegic.value.DoubleValue
3.051

@<SCITEGIC>MOL_PROPERTY
Pdih
SciTegic.value.DoubleValue
8.764

@<SCITEGIC>MOL_PROPERTY
Idih
SciTegic.value.DoubleValue
0.000

@<SCITEGIC>MOL_PROPERTY
Tether
SciTegic.value.DoubleValue
0.000

@<TRIPOS>MOLECULE
guest-5_confgen4.mol2 : confsearch ligand conformer 262
          22          22           1
SMALL
USER_CHARGES
 
@<TRIPOS>ATOM
       1    C1      21.272900   19.454448   23.881280 C.3        1 MOL1        -0.1685
       2    H1      22.214829   19.390261   24.442707 H          1 MOL1         0.0832
       3    H2      20.523062   19.847374   24.581656 H          1 MOL1         0.0832
       4    C2      20.896954   18.027929   23.421829 C.3        1 MOL1        -0.1685
       5    H3      21.623990   17.678364   22.676306 H          1 MOL1         0.0832
       6    H4      20.992821   17.346877   24.278297 H          1 MOL1         0.0832
       7    C3      19.468067   17.890193   22.852152 C.3        1 MOL1        -0.1685
       8    H5      18.737458   18.034551   23.659159 H          1 MOL1         0.0832
       9    H6      19.335676   16.852447   22.517964 H          1 MOL1         0.0832
      10    C4      19.138353   18.832136   21.662522 C.3        1 MOL1        -0.1761
      11    H7      19.910932   18.745391   20.888018 H          1 MOL1         0.0832
      12    H8      18.211987   18.469619   21.198831 H          1 MOL1         0.0832
      13    C5      18.916477   20.324559   22.019560 C.3        1 MOL1         0.1218
      14    H9      18.393029   20.778584   21.165663 H          1 MOL1         0.0789
      15    C6      20.200583   21.166958   22.235375 C.3        1 MOL1        -0.1761
      16    H10     20.436327   21.673219   21.290289 H          1 MOL1         0.0832
      17    H11     19.983689   21.973633   22.947909 H          1 MOL1         0.0832
      18    C7      21.479763   20.427071   22.699235 C.3        1 MOL1        -0.1685
      19    H12     21.929238   19.892021   21.851823 H          1 MOL1         0.0832
      20    H13     22.218077   21.185355   22.993472 H          1 MOL1         0.0832
      21    O1      18.067708   20.443724   23.158116 O.3        1 MOL1        -0.5509
      22    H14     17.931968   21.400917   23.310646 H          1 MOL1         0.3779
@<TRIPOS>BOND
    1     1     2    1
    2     1     3    1
    3     1     4    1
    4     4     5    1
    5     4     6    1
    6     4     7    1
    7     7     8    1
    8     7     9    1
    9     7    10    1
   10    10    11    1
   11    10    12    1
   12    10    13    1
   13    13    14    1
   14    13    15    1
   15    15    16    1
   16    15    17    1
   17     1    18    1
   18    15    18    1
   19    18    19    1
   20    18    20    1
   21    13    21    1
   22    21    22    1
@<TRIPOS>SUBSTRUCTURE
       1 MOL1            1 RESIDUE      1      MOL     
@<SCITEGIC>MOL_PROPERTY
VConf Rank
SciTegic.value.IntegerValue
262

@<SCITEGIC>MOL_PROPERTY
Conf_Id
SciTegic.value.IntegerValue
104

@<SCITEGIC>MOL_PROPERTY
Delta U+W
SciTegic.value.DoubleValue
-1.172

@<SCITEGIC>MOL_PROPERTY
U+W
SciTegic.value.DoubleValue
5.252

@<SCITEGIC>MOL_PROPERTY
Grad RMS
SciTegic.value.DoubleValue
0.000000

@<SCITEGIC>MOL_PROPERTY
U
SciTegic.value.DoubleValue
7.482

@<SCITEGIC>MOL_PROPERTY
W
SciTegic.value.DoubleValue
-2.230

@<SCITEGIC>MOL_PROPERTY
W(PB)
SciTegic.value.DoubleValue
-4.220

@<SCITEGIC>MOL_PROPERTY
W(SA)
SciTegic.value.DoubleValue
1.990

@<SCITEGIC>MOL_PROPERTY
Valence
SciTegic.value.DoubleValue
12.309

@<SCITEGIC>MOL_PROPERTY
Coulomb
SciTegic.value.DoubleValue
-7.084

@<SCITEGIC>MOL_PROPERTY
VdW
SciTegic.value.DoubleValue
2.258

@<SCITEGIC>MOL_PROPERTY
VdW6
SciTegic.value.DoubleValue
-9.770

@<SCITEGIC>MOL_PROPERTY
VdW12
SciTegic.value.DoubleValue
12.028

@<SCITEGIC>MOL_PROPERTY
Bond
SciTegic.value.DoubleValue
0.284

@<SCITEGIC>MOL_PROPERTY
Angle
SciTegic.value.DoubleValue
3.491

@<SCITEGIC>MOL_PROPERTY
Pdih
SciTegic.value.DoubleValue
8.535

@<SCITEGIC>MOL_PROPERTY
Idih
SciTegic.value.DoubleValue
0.000

@<SCITEGIC>MOL_PROPERTY
Tether
SciTegic.value.DoubleValue
0.000

@<TRIPOS>MOLECULE
guest-5_confgen4.mol2 : confsearch ligand conformer 263
          22          22           1
SMALL
USER_CHARGES
 
@<TRIPOS>ATOM
       1    C1      19.875556   21.177375   23.047273 C.3        1 MOL1        -0.1685
       2    H1      20.541522   21.114489   23.918489 H          1 MOL1         0.0832
       3    H2      19.514037   22.214370   23.017543 H          1 MOL1         0.0832
       4    C2      18.648459   20.253778   23.222449 C.3        1 MOL1        -0.1685
       5    H3      17.924526   20.754065   23.880387 H          1 MOL1         0.0832
       6    H4      18.131713   20.149070   22.259461 H          1 MOL1         0.0832
       7    C3      18.941189   18.854440   23.820642 C.3        1 MOL1        -0.1685
       8    H5      18.153037   18.163471   23.490955 H          1 MOL1         0.0832
       9    H6      18.837232   18.914786   24.912649 H          1 MOL1         0.0832
      10    C4      20.328662   18.226828   23.516954 C.3        1 MOL1        -0.1761
      11    H7      21.079650   18.679839   24.177071 H          1 MOL1         0.0832
      12    H8      20.292422   17.168513   23.806188 H          1 MOL1         0.0832
      13    C5      20.835162   18.309261   22.058653 C.3        1 MOL1         0.1218
      14    H9      21.583993   17.514996   21.927211 H          1 MOL1         0.0789
      15    C6      21.542526   19.646676   21.743650 C.3        1 MOL1        -0.1761
      16    H10     22.359476   19.790191   22.462718 H          1 MOL1         0.0832
      17    H11     22.025593   19.555311   20.762048 H          1 MOL1         0.0832
      18    C7      20.652730   20.914346   21.735466 C.3        1 MOL1        -0.1685
      19    H12     21.301223   21.779093   21.539559 H          1 MOL1         0.0832
      20    H13     19.953074   20.872818   20.889751 H          1 MOL1         0.0832
      21    O1      19.768744   18.093276   21.147460 O.3        1 MOL1        -0.5509
      22    H14     19.113180   18.780529   21.380281 H          1 MOL1         0.3779
@<TRIPOS>BOND
    1     1     2    1
    2     1     3    1
    3     1     4    1
    4     4     5    1
    5     4     6    1
    6     4     7    1
    7     7     8    1
    8     7     9    1
    9     7    10    1
   10    10    11    1
   11    10    12    1
   12    10    13    1
   13    13    14    1
   14    13    15    1
   15    15    16    1
   16    15    17    1
   17     1    18    1
   18    15    18    1
   19    18    19    1
   20    18    20    1
   21    13    21    1
   22    21    22    1
@<TRIPOS>SUBSTRUCTURE
       1 MOL1            1 RESIDUE      1      MOL     
@<SCITEGIC>MOL_PROPERTY
VConf Rank
SciTegic.value.IntegerValue
263

@<SCITEGIC>MOL_PROPERTY
Conf_Id
SciTegic.value.IntegerValue
99

@<SCITEGIC>MOL_PROPERTY
Delta U+W
SciTegic.value.DoubleValue
-3.852

@<SCITEGIC>MOL_PROPERTY
U+W
SciTegic.value.DoubleValue
2.572

@<SCITEGIC>MOL_PROPERTY
Grad RMS
SciTegic.value.DoubleValue
0.000000

@<SCITEGIC>MOL_PROPERTY
U
SciTegic.value.DoubleValue
3.922

@<SCITEGIC>MOL_PROPERTY
W
SciTegic.value.DoubleValue
-1.350

@<SCITEGIC>MOL_PROPERTY
W(PB)
SciTegic.value.DoubleValue
-3.345

@<SCITEGIC>MOL_PROPERTY
W(SA)
SciTegic.value.DoubleValue
1.995

@<SCITEGIC>MOL_PROPERTY
Valence
SciTegic.value.DoubleValue
12.571

@<SCITEGIC>MOL_PROPERTY
Coulomb
SciTegic.value.DoubleValue
-10.581

@<SCITEGIC>MOL_PROPERTY
VdW
SciTegic.value.DoubleValue
1.932

@<SCITEGIC>MOL_PROPERTY
VdW6
SciTegic.value.DoubleValue
-10.483

@<SCITEGIC>MOL_PROPERTY
VdW12
SciTegic.value.DoubleValue
12.415

@<SCITEGIC>MOL_PROPERTY
Bond
SciTegic.value.DoubleValue
0.268

@<SCITEGIC>MOL_PROPERTY
Angle
SciTegic.value.DoubleValue
3.728

@<SCITEGIC>MOL_PROPERTY
Pdih
SciTegic.value.DoubleValue
8.575

@<SCITEGIC>MOL_PROPERTY
Idih
SciTegic.value.DoubleValue
0.000

@<SCITEGIC>MOL_PROPERTY
Tether
SciTegic.value.DoubleValue
0.000

@<TRIPOS>MOLECULE
guest-5_confgen4.mol2 : confsearch ligand conformer 264
          22          22           1
SMALL
USER_CHARGES
 
@<TRIPOS>ATOM
       1    C1      20.905946   20.841022   21.948867 C.3        1 MOL1        -0.1685
       2    H1      20.947244   21.835325   21.483093 H          1 MOL1         0.0832
       3    H2      21.945325   20.486425   21.951802 H          1 MOL1         0.0832
       4    C2      20.029543   19.926038   21.044116 C.3        1 MOL1        -0.1685
       5    H3      19.691643   20.524264   20.186654 H          1 MOL1         0.0832
       6    H4      20.642859   19.126574   20.607362 H          1 MOL1         0.0832
       7    C3      18.774667   19.310231   21.714053 C.3        1 MOL1        -0.1685
       8    H5      18.151344   18.856894   20.931314 H          1 MOL1         0.0832
       9    H6      18.150742   20.108103   22.135584 H          1 MOL1         0.0832
      10    C4      19.042149   18.226808   22.795477 C.3        1 MOL1        -0.1761
      11    H7      18.159579   18.165484   23.445131 H          1 MOL1         0.0832
      12    H8      19.105243   17.249348   22.298902 H          1 MOL1         0.0832
      13    C5      20.298320   18.378261   23.688368 C.3        1 MOL1         0.1218
      14    H9      20.189499   17.663465   24.516619 H          1 MOL1         0.0789
      15    C6      20.523126   19.772410   24.323944 C.3        1 MOL1        -0.1761
      16    H10     19.815760   19.893682   25.154406 H          1 MOL1         0.0832
      17    H11     21.518061   19.767455   24.788784 H          1 MOL1         0.0832
      18    C7      20.415641   21.023156   23.408039 C.3        1 MOL1        -0.1685
      19    H12     19.383390   21.394672   23.408217 H          1 MOL1         0.0832
      20    H13     20.999434   21.830082   23.871484 H          1 MOL1         0.0832
      21    O1      21.452086   17.997501   22.955506 O.3        1 MOL1        -0.5509
      22    H14     21.504270   18.658702   22.236463 H          1 MOL1         0.3779
@<TRIPOS>BOND
    1     1     2    1
    2     1     3    1
    3     1     4    1
    4     4     5    1
    5     4     6    1
    6     4     7    1
    7     7     8    1
    8     7     9    1
    9     7    10    1
   10    10    11    1
   11    10    12    1
   12    10    13    1
   13    13    14    1
   14    13    15    1
   15    15    16    1
   16    15    17    1
   17     1    18    1
   18    15    18    1
   19    18    19    1
   20    18    20    1
   21    13    21    1
   22    21    22    1
@<TRIPOS>SUBSTRUCTURE
       1 MOL1            1 RESIDUE      1      MOL     
@<SCITEGIC>MOL_PROPERTY
VConf Rank
SciTegic.value.IntegerValue
264

@<SCITEGIC>MOL_PROPERTY
Conf_Id
SciTegic.value.IntegerValue
98

@<SCITEGIC>MOL_PROPERTY
Delta U+W
SciTegic.value.DoubleValue
0.930

@<SCITEGIC>MOL_PROPERTY
U+W
SciTegic.value.DoubleValue
7.353

@<SCITEGIC>MOL_PROPERTY
Grad RMS
SciTegic.value.DoubleValue
0.000000

@<SCITEGIC>MOL_PROPERTY
U
SciTegic.value.DoubleValue
8.455

@<SCITEGIC>MOL_PROPERTY
W
SciTegic.value.DoubleValue
-1.102

@<SCITEGIC>MOL_PROPERTY
W(PB)
SciTegic.value.DoubleValue
-3.101

@<SCITEGIC>MOL_PROPERTY
W(SA)
SciTegic.value.DoubleValue
2.000

@<SCITEGIC>MOL_PROPERTY
Valence
SciTegic.value.DoubleValue
15.601

@<SCITEGIC>MOL_PROPERTY
Coulomb
SciTegic.value.DoubleValue
-10.573

@<SCITEGIC>MOL_PROPERTY
VdW
SciTegic.value.DoubleValue
3.427

@<SCITEGIC>MOL_PROPERTY
VdW6
SciTegic.value.DoubleValue
-11.360

@<SCITEGIC>MOL_PROPERTY
VdW12
SciTegic.value.DoubleValue
14.787

@<SCITEGIC>MOL_PROPERTY
Bond
SciTegic.value.DoubleValue
0.471

@<SCITEGIC>MOL_PROPERTY
Angle
SciTegic.value.DoubleValue
5.445

@<SCITEGIC>MOL_PROPERTY
Pdih
SciTegic.value.DoubleValue
9.685

@<SCITEGIC>MOL_PROPERTY
Idih
SciTegic.value.DoubleValue
0.000

@<SCITEGIC>MOL_PROPERTY
Tether
SciTegic.value.DoubleValue
0.000

@<TRIPOS>MOLECULE
guest-5_confgen4.mol2 : confsearch ligand conformer 265
          22          22           1
SMALL
USER_CHARGES
 
@<TRIPOS>ATOM
       1    C1      20.757583   18.845195   21.265981 C.3        1 MOL1        -0.1685
       2    H1      20.175972   19.557250   20.666409 H          1 MOL1         0.0832
       3    H2      21.380909   18.304336   20.540965 H          1 MOL1         0.0832
       4    C2      19.803104   17.832465   21.948262 C.3        1 MOL1        -0.1685
       5    H3      19.244886   17.317721   21.154342 H          1 MOL1         0.0832
       6    H4      20.392055   17.053283   22.450891 H          1 MOL1         0.0832
       7    C3      18.777513   18.425656   22.953713 C.3        1 MOL1        -0.1685
       8    H5      19.103777   18.230237   23.983460 H          1 MOL1         0.0832
       9    H6      17.834064   17.873347   22.846504 H          1 MOL1         0.0832
      10    C4      18.489012   19.940493   22.781244 C.3        1 MOL1        -0.1761
      11    H7      18.225275   20.139811   21.735137 H          1 MOL1         0.0832
      12    H8      17.583193   20.186221   23.351768 H          1 MOL1         0.0832
      13    C5      19.633205   20.904158   23.212575 C.3        1 MOL1         0.1218
      14    H9      19.755651   21.659551   22.422983 H          1 MOL1         0.0789
      15    C6      21.011978   20.245916   23.469400 C.3        1 MOL1        -0.1761
      16    H10     21.694809   21.000281   23.881386 H          1 MOL1         0.0832
      17    H11     20.917965   19.486910   24.255314 H          1 MOL1         0.0832
      18    C7      21.691061   19.619909   22.225708 C.3        1 MOL1        -0.1685
      19    H12     22.185836   20.415823   21.652529 H          1 MOL1         0.0832
      20    H13     22.492971   18.950986   22.566521 H          1 MOL1         0.0832
      21    O1      19.242464   21.558099   24.414597 O.3        1 MOL1        -0.5509
      22    H14     19.951970   22.198153   24.631649 H          1 MOL1         0.3779
@<TRIPOS>BOND
    1     1     2    1
    2     1     3    1
    3     1     4    1
    4     4     5    1
    5     4     6    1
    6     4     7    1
    7     7     8    1
    8     7     9    1
    9     7    10    1
   10    10    11    1
   11    10    12    1
   12    10    13    1
   13    13    14    1
   14    13    15    1
   15    15    16    1
   16    15    17    1
   17     1    18    1
   18    15    18    1
   19    18    19    1
   20    18    20    1
   21    13    21    1
   22    21    22    1
@<TRIPOS>SUBSTRUCTURE
       1 MOL1            1 RESIDUE      1      MOL     
@<SCITEGIC>MOL_PROPERTY
VConf Rank
SciTegic.value.IntegerValue
265

@<SCITEGIC>MOL_PROPERTY
Conf_Id
SciTegic.value.IntegerValue
141

@<SCITEGIC>MOL_PROPERTY
Delta U+W
SciTegic.value.DoubleValue
0.000

@<SCITEGIC>MOL_PROPERTY
U+W
SciTegic.value.DoubleValue
6.423

@<SCITEGIC>MOL_PROPERTY
Grad RMS
SciTegic.value.DoubleValue
0.000000

@<SCITEGIC>MOL_PROPERTY
U
SciTegic.value.DoubleValue
8.781

@<SCITEGIC>MOL_PROPERTY
W
SciTegic.value.DoubleValue
-2.358

@<SCITEGIC>MOL_PROPERTY
W(PB)
SciTegic.value.DoubleValue
-4.373

@<SCITEGIC>MOL_PROPERTY
W(SA)
SciTegic.value.DoubleValue
2.015

@<SCITEGIC>MOL_PROPERTY
Valence
SciTegic.value.DoubleValue
13.328

@<SCITEGIC>MOL_PROPERTY
Coulomb
SciTegic.value.DoubleValue
-8.387

@<SCITEGIC>MOL_PROPERTY
VdW
SciTegic.value.DoubleValue
3.840

@<SCITEGIC>MOL_PROPERTY
VdW6
SciTegic.value.DoubleValue
-9.744

@<SCITEGIC>MOL_PROPERTY
VdW12
SciTegic.value.DoubleValue
13.584

@<SCITEGIC>MOL_PROPERTY
Bond
SciTegic.value.DoubleValue
0.436

@<SCITEGIC>MOL_PROPERTY
Angle
SciTegic.value.DoubleValue
3.478

@<SCITEGIC>MOL_PROPERTY
Pdih
SciTegic.value.DoubleValue
9.415

@<SCITEGIC>MOL_PROPERTY
Idih
SciTegic.value.DoubleValue
0.000

@<SCITEGIC>MOL_PROPERTY
Tether
SciTegic.value.DoubleValue
0.000

@<TRIPOS>MOLECULE
guest-5_confgen4.mol2 : confsearch ligand conformer 266
          22          22           1
SMALL
USER_CHARGES
 
@<TRIPOS>ATOM
       1    C1      18.481644   20.363376   22.175518 C.3        1 MOL1        -0.1685
       2    H1      18.134438   19.385204   21.816023 H          1 MOL1         0.0832
       3    H2      17.643190   21.057171   22.025356 H          1 MOL1         0.0832
       4    C2      19.671506   20.874258   21.327648 C.3        1 MOL1        -0.1685
       5    H3      19.305558   21.114428   20.320049 H          1 MOL1         0.0832
       6    H4      20.036547   21.822076   21.746293 H          1 MOL1         0.0832
       7    C3      20.853772   19.887706   21.188751 C.3        1 MOL1        -0.1685
       8    H5      21.654080   20.389186   20.627635 H          1 MOL1         0.0832
       9    H6      20.545188   19.033050   20.571257 H          1 MOL1         0.0832
      10    C4      21.436714   19.372799   22.527492 C.3        1 MOL1        -0.1761
      11    H7      22.392735   18.880520   22.305747 H          1 MOL1         0.0832
      12    H8      21.672701   20.211540   23.195190 H          1 MOL1         0.0832
      13    C5      20.504870   18.363425   23.234924 C.3        1 MOL1         0.1218
      14    H9      19.967883   17.792107   22.464156 H          1 MOL1         0.0789
      15    C6      19.461621   19.004822   24.178077 C.3        1 MOL1        -0.1761
      16    H10     18.677100   18.259052   24.360293 H          1 MOL1         0.0832
      17    H11     19.925157   19.198430   25.154684 H          1 MOL1         0.0832
      18    C7      18.797406   20.316118   23.688827 C.3        1 MOL1        -0.1685
      19    H12     17.864693   20.454919   24.252393 H          1 MOL1         0.0832
      20    H13     19.432444   21.171646   23.956238 H          1 MOL1         0.0832
      21    O1      21.298810   17.465820   24.001202 O.3        1 MOL1        -0.5509
      22    H14     21.901001   17.014854   23.373019 H          1 MOL1         0.3779
@<TRIPOS>BOND
    1     1     2    1
    2     1     3    1
    3     1     4    1
    4     4     5    1
    5     4     6    1
    6     4     7    1
    7     7     8    1
    8     7     9    1
    9     7    10    1
   10    10    11    1
   11    10    12    1
   12    10    13    1
   13    13    14    1
   14    13    15    1
   15    15    16    1
   16    15    17    1
   17     1    18    1
   18    15    18    1
   19    18    19    1
   20    18    20    1
   21    13    21    1
   22    21    22    1
@<TRIPOS>SUBSTRUCTURE
       1 MOL1            1 RESIDUE      1      MOL     
@<SCITEGIC>MOL_PROPERTY
VConf Rank
SciTegic.value.IntegerValue
266

@<SCITEGIC>MOL_PROPERTY
Conf_Id
SciTegic.value.IntegerValue
144

@<SCITEGIC>MOL_PROPERTY
Delta U+W
SciTegic.value.DoubleValue
-3.291

@<SCITEGIC>MOL_PROPERTY
U+W
SciTegic.value.DoubleValue
3.132

@<SCITEGIC>MOL_PROPERTY
Grad RMS
SciTegic.value.DoubleValue
0.000000

@<SCITEGIC>MOL_PROPERTY
U
SciTegic.value.DoubleValue
5.411

@<SCITEGIC>MOL_PROPERTY
W
SciTegic.value.DoubleValue
-2.279

@<SCITEGIC>MOL_PROPERTY
W(PB)
SciTegic.value.DoubleValue
-4.300

@<SCITEGIC>MOL_PROPERTY
W(SA)
SciTegic.value.DoubleValue
2.021

@<SCITEGIC>MOL_PROPERTY
Valence
SciTegic.value.DoubleValue
11.909

@<SCITEGIC>MOL_PROPERTY
Coulomb
SciTegic.value.DoubleValue
-8.733

@<SCITEGIC>MOL_PROPERTY
VdW
SciTegic.value.DoubleValue
2.236

@<SCITEGIC>MOL_PROPERTY
VdW6
SciTegic.value.DoubleValue
-8.936

@<SCITEGIC>MOL_PROPERTY
VdW12
SciTegic.value.DoubleValue
11.172

@<SCITEGIC>MOL_PROPERTY
Bond
SciTegic.value.DoubleValue
0.223

@<SCITEGIC>MOL_PROPERTY
Angle
SciTegic.value.DoubleValue
2.457

@<SCITEGIC>MOL_PROPERTY
Pdih
SciTegic.value.DoubleValue
9.228

@<SCITEGIC>MOL_PROPERTY
Idih
SciTegic.value.DoubleValue
0.000

@<SCITEGIC>MOL_PROPERTY
Tether
SciTegic.value.DoubleValue
0.000

@<TRIPOS>MOLECULE
guest-5_confgen4.mol2 : confsearch ligand conformer 267
          22          22           1
SMALL
USER_CHARGES
 
@<TRIPOS>ATOM
       1    C1      21.300429   18.622695   23.188505 C.3        1 MOL1        -0.1685
       2    H1      22.309217   18.218932   23.350410 H          1 MOL1         0.0832
       3    H2      20.628188   18.021417   23.815593 H          1 MOL1         0.0832
       4    C2      20.953079   18.455715   21.690660 C.3        1 MOL1        -0.1685
       5    H3      21.394196   19.283334   21.118616 H          1 MOL1         0.0832
       6    H4      21.439639   17.546272   21.312279 H          1 MOL1         0.0832
       7    C3      19.441181   18.353927   21.374865 C.3        1 MOL1        -0.1685
       8    H5      19.114884   17.315008   21.520100 H          1 MOL1         0.0832
       9    H6      19.299909   18.564082   20.305802 H          1 MOL1         0.0832
      10    C4      18.504487   19.272850   22.197256 C.3        1 MOL1        -0.1761
      11    H7      17.549093   19.345535   21.660219 H          1 MOL1         0.0832
      12    H8      18.271996   18.787220   23.153815 H          1 MOL1         0.0832
      13    C5      19.054595   20.691732   22.465113 C.3        1 MOL1         0.1218
      14    H9      19.652012   21.023670   21.604080 H          1 MOL1         0.0789
      15    C6      19.911962   20.762190   23.749222 C.3        1 MOL1        -0.1761
      16    H10     20.055776   21.817122   24.018604 H          1 MOL1         0.0832
      17    H11     19.360629   20.308684   24.583159 H          1 MOL1         0.0832
      18    C7      21.307051   20.101501   23.644664 C.3        1 MOL1        -0.1685
      19    H12     21.938529   20.690062   22.965137 H          1 MOL1         0.0832
      20    H13     21.790013   20.162069   24.629482 H          1 MOL1         0.0832
      21    O1      17.952775   21.574868   22.627208 O.3        1 MOL1        -0.5509
      22    H14     17.446430   21.246741   23.398640 H          1 MOL1         0.3779
@<TRIPOS>BOND
    1     1     2    1
    2     1     3    1
    3     1     4    1
    4     4     5    1
    5     4     6    1
    6     4     7    1
    7     7     8    1
    8     7     9    1
    9     7    10    1
   10    10    11    1
   11    10    12    1
   12    10    13    1
   13    13    14    1
   14    13    15    1
   15    15    16    1
   16    15    17    1
   17     1    18    1
   18    15    18    1
   19    18    19    1
   20    18    20    1
   21    13    21    1
   22    21    22    1
@<TRIPOS>SUBSTRUCTURE
       1 MOL1            1 RESIDUE      1      MOL     
@<SCITEGIC>MOL_PROPERTY
VConf Rank
SciTegic.value.IntegerValue
267

@<SCITEGIC>MOL_PROPERTY
Conf_Id
SciTegic.value.IntegerValue
76

@<SCITEGIC>MOL_PROPERTY
Delta U+W
SciTegic.value.DoubleValue
-3.175

@<SCITEGIC>MOL_PROPERTY
U+W
SciTegic.value.DoubleValue
3.248

@<SCITEGIC>MOL_PROPERTY
Grad RMS
SciTegic.value.DoubleValue
0.000000

@<SCITEGIC>MOL_PROPERTY
U
SciTegic.value.DoubleValue
5.336

@<SCITEGIC>MOL_PROPERTY
W
SciTegic.value.DoubleValue
-2.088

@<SCITEGIC>MOL_PROPERTY
W(PB)
SciTegic.value.DoubleValue
-4.098

@<SCITEGIC>MOL_PROPERTY
W(SA)
SciTegic.value.DoubleValue
2.010

@<SCITEGIC>MOL_PROPERTY
Valence
SciTegic.value.DoubleValue
12.390

@<SCITEGIC>MOL_PROPERTY
Coulomb
SciTegic.value.DoubleValue
-9.270

@<SCITEGIC>MOL_PROPERTY
VdW
SciTegic.value.DoubleValue
2.216

@<SCITEGIC>MOL_PROPERTY
VdW6
SciTegic.value.DoubleValue
-8.967

@<SCITEGIC>MOL_PROPERTY
VdW12
SciTegic.value.DoubleValue
11.183

@<SCITEGIC>MOL_PROPERTY
Bond
SciTegic.value.DoubleValue
0.218

@<SCITEGIC>MOL_PROPERTY
Angle
SciTegic.value.DoubleValue
2.426

@<SCITEGIC>MOL_PROPERTY
Pdih
SciTegic.value.DoubleValue
9.745

@<SCITEGIC>MOL_PROPERTY
Idih
SciTegic.value.DoubleValue
0.000

@<SCITEGIC>MOL_PROPERTY
Tether
SciTegic.value.DoubleValue
0.000

@<TRIPOS>MOLECULE
guest-5_confgen4.mol2 : confsearch ligand conformer 268
          22          22           1
SMALL
USER_CHARGES
 
@<TRIPOS>ATOM
       1    C1      21.028231   19.481225   21.078146 C.3        1 MOL1        -0.1685
       2    H1      20.987305   20.196860   20.245696 H          1 MOL1         0.0832
       3    H2      21.807918   18.755527   20.809319 H          1 MOL1         0.0832
       4    C2      19.666900   18.749371   21.154588 C.3        1 MOL1        -0.1685
       5    H3      18.859241   19.450382   20.904087 H          1 MOL1         0.0832
       6    H4      19.647609   17.985243   20.365589 H          1 MOL1         0.0832
       7    C3      19.361158   18.076455   22.512987 C.3        1 MOL1        -0.1685
       8    H5      20.270697   17.643568   22.951374 H          1 MOL1         0.0832
       9    H6      18.680184   17.234224   22.330743 H          1 MOL1         0.0832
      10    C4      18.668678   19.034856   23.514994 C.3        1 MOL1        -0.1761
      11    H7      17.806481   19.506287   23.026239 H          1 MOL1         0.0832
      12    H8      18.251814   18.439598   24.337980 H          1 MOL1         0.0832
      13    C5      19.558023   20.139749   24.129304 C.3        1 MOL1         0.1218
      14    H9      18.885895   20.828427   24.661341 H          1 MOL1         0.0789
      15    C6      20.360185   20.984242   23.107612 C.3        1 MOL1        -0.1761
      16    H10     19.673864   21.445013   22.385441 H          1 MOL1         0.0832
      17    H11     20.817887   21.818572   23.654594 H          1 MOL1         0.0832
      18    C7      21.483376   20.220636   22.358903 C.3        1 MOL1        -0.1685
      19    H12     22.267857   20.935009   22.074856 H          1 MOL1         0.0832
      20    H13     21.971054   19.507968   23.036927 H          1 MOL1         0.0832
      21    O1      20.440614   19.556508   25.082658 O.3        1 MOL1        -0.5509
      22    H14     21.017249   20.278089   25.406846 H          1 MOL1         0.3779
@<TRIPOS>BOND
    1     1     2    1
    2     1     3    1
    3     1     4    1
    4     4     5    1
    5     4     6    1
    6     4     7    1
    7     7     8    1
    8     7     9    1
    9     7    10    1
   10    10    11    1
   11    10    12    1
   12    10    13    1
   13    13    14    1
   14    13    15    1
   15    15    16    1
   16    15    17    1
   17     1    18    1
   18    15    18    1
   19    18    19    1
   20    18    20    1
   21    13    21    1
   22    21    22    1
@<TRIPOS>SUBSTRUCTURE
       1 MOL1            1 RESIDUE      1      MOL     
@<SCITEGIC>MOL_PROPERTY
VConf Rank
SciTegic.value.IntegerValue
268

@<SCITEGIC>MOL_PROPERTY
Conf_Id
SciTegic.value.IntegerValue
95

@<SCITEGIC>MOL_PROPERTY
Delta U+W
SciTegic.value.DoubleValue
-2.289

@<SCITEGIC>MOL_PROPERTY
U+W
SciTegic.value.DoubleValue
4.134

@<SCITEGIC>MOL_PROPERTY
Grad RMS
SciTegic.value.DoubleValue
0.000000

@<SCITEGIC>MOL_PROPERTY
U
SciTegic.value.DoubleValue
6.373

@<SCITEGIC>MOL_PROPERTY
W
SciTegic.value.DoubleValue
-2.240

@<SCITEGIC>MOL_PROPERTY
W(PB)
SciTegic.value.DoubleValue
-4.254

@<SCITEGIC>MOL_PROPERTY
W(SA)
SciTegic.value.DoubleValue
2.015

@<SCITEGIC>MOL_PROPERTY
Valence
SciTegic.value.DoubleValue
12.093

@<SCITEGIC>MOL_PROPERTY
Coulomb
SciTegic.value.DoubleValue
-8.058

@<SCITEGIC>MOL_PROPERTY
VdW
SciTegic.value.DoubleValue
2.339

@<SCITEGIC>MOL_PROPERTY
VdW6
SciTegic.value.DoubleValue
-9.683

@<SCITEGIC>MOL_PROPERTY
VdW12
SciTegic.value.DoubleValue
12.022

@<SCITEGIC>MOL_PROPERTY
Bond
SciTegic.value.DoubleValue
0.268

@<SCITEGIC>MOL_PROPERTY
Angle
SciTegic.value.DoubleValue
3.005

@<SCITEGIC>MOL_PROPERTY
Pdih
SciTegic.value.DoubleValue
8.820

@<SCITEGIC>MOL_PROPERTY
Idih
SciTegic.value.DoubleValue
0.000

@<SCITEGIC>MOL_PROPERTY
Tether
SciTegic.value.DoubleValue
0.000

@<TRIPOS>MOLECULE
guest-5_confgen4.mol2 : confsearch ligand conformer 269
          22          22           1
SMALL
USER_CHARGES
 
@<TRIPOS>ATOM
       1    C1      18.491937   20.593571   22.149494 C.3        1 MOL1        -0.1685
       2    H1      17.853392   20.400185   21.276787 H          1 MOL1         0.0832
       3    H2      18.032313   21.443256   22.672533 H          1 MOL1         0.0832
       4    C2      19.891210   21.015640   21.641337 C.3        1 MOL1        -0.1685
       5    H3      20.135395   20.451546   20.731034 H          1 MOL1         0.0832
       6    H4      19.835617   22.067265   21.328615 H          1 MOL1         0.0832
       7    C3      21.036671   20.857037   22.668118 C.3        1 MOL1        -0.1685
       8    H5      20.695451   21.112860   23.680513 H          1 MOL1         0.0832
       9    H6      21.821022   21.584083   22.417871 H          1 MOL1         0.0832
      10    C4      21.674579   19.445127   22.638285 C.3        1 MOL1        -0.1761
      11    H7      21.925207   19.186330   21.601412 H          1 MOL1         0.0832
      12    H8      22.634732   19.482525   23.169030 H          1 MOL1         0.0832
      13    C5      20.828202   18.301408   23.242676 C.3        1 MOL1         0.1218
      14    H9      21.336854   17.360643   22.987068 H          1 MOL1         0.0789
      15    C6      19.380690   18.196920   22.700345 C.3        1 MOL1        -0.1761
      16    H10     19.397096   18.076100   21.609647 H          1 MOL1         0.0832
      17    H11     18.951541   17.268381   23.098434 H          1 MOL1         0.0832
      18    C7      18.443031   19.368218   23.093153 C.3        1 MOL1        -0.1685
      19    H12     17.408595   18.999827   23.114256 H          1 MOL1         0.0832
      20    H13     18.657248   19.689136   24.121133 H          1 MOL1         0.0832
      21    O1      20.811467   18.425312   24.661571 O.3        1 MOL1        -0.5509
      22    H14     21.744086   18.504446   24.948179 H          1 MOL1         0.3779
@<TRIPOS>BOND
    1     1     2    1
    2     1     3    1
    3     1     4    1
    4     4     5    1
    5     4     6    1
    6     4     7    1
    7     7     8    1
    8     7     9    1
    9     7    10    1
   10    10    11    1
   11    10    12    1
   12    10    13    1
   13    13    14    1
   14    13    15    1
   15    15    16    1
   16    15    17    1
   17     1    18    1
   18    15    18    1
   19    18    19    1
   20    18    20    1
   21    13    21    1
   22    21    22    1
@<TRIPOS>SUBSTRUCTURE
       1 MOL1            1 RESIDUE      1      MOL     
@<SCITEGIC>MOL_PROPERTY
VConf Rank
SciTegic.value.IntegerValue
269

@<SCITEGIC>MOL_PROPERTY
Conf_Id
SciTegic.value.IntegerValue
41

@<SCITEGIC>MOL_PROPERTY
Delta U+W
SciTegic.value.DoubleValue
-2.114

@<SCITEGIC>MOL_PROPERTY
U+W
SciTegic.value.DoubleValue
4.310

@<SCITEGIC>MOL_PROPERTY
Grad RMS
SciTegic.value.DoubleValue
0.000000

@<SCITEGIC>MOL_PROPERTY
U
SciTegic.value.DoubleValue
6.598

@<SCITEGIC>MOL_PROPERTY
W
SciTegic.value.DoubleValue
-2.289

@<SCITEGIC>MOL_PROPERTY
W(PB)
SciTegic.value.DoubleValue
-4.294

@<SCITEGIC>MOL_PROPERTY
W(SA)
SciTegic.value.DoubleValue
2.005

@<SCITEGIC>MOL_PROPERTY
Valence
SciTegic.value.DoubleValue
12.082

@<SCITEGIC>MOL_PROPERTY
Coulomb
SciTegic.value.DoubleValue
-7.801

@<SCITEGIC>MOL_PROPERTY
VdW
SciTegic.value.DoubleValue
2.317

@<SCITEGIC>MOL_PROPERTY
VdW6
SciTegic.value.DoubleValue
-9.658

@<SCITEGIC>MOL_PROPERTY
VdW12
SciTegic.value.DoubleValue
11.975

@<SCITEGIC>MOL_PROPERTY
Bond
SciTegic.value.DoubleValue
0.267

@<SCITEGIC>MOL_PROPERTY
Angle
SciTegic.value.DoubleValue
3.051

@<SCITEGIC>MOL_PROPERTY
Pdih
SciTegic.value.DoubleValue
8.764

@<SCITEGIC>MOL_PROPERTY
Idih
SciTegic.value.DoubleValue
0.000

@<SCITEGIC>MOL_PROPERTY
Tether
SciTegic.value.DoubleValue
0.000

@<TRIPOS>MOLECULE
guest-5_confgen4.mol2 : confsearch ligand conformer 270
          22          22           1
SMALL
USER_CHARGES
 
@<TRIPOS>ATOM
       1    C1      21.511101   18.693100   22.890358 C.3        1 MOL1        -0.1685
       2    H1      22.326195   18.029652   23.209745 H          1 MOL1         0.0832
       3    H2      21.725421   18.964251   21.847420 H          1 MOL1         0.0832
       4    C2      21.535963   19.944389   23.796474 C.3        1 MOL1        -0.1685
       5    H3      21.258632   19.661767   24.821068 H          1 MOL1         0.0832
       6    H4      22.568508   20.314467   23.855232 H          1 MOL1         0.0832
       7    C3      20.633397   21.103278   23.319427 C.3        1 MOL1        -0.1685
       8    H5      21.041112   21.525787   22.391449 H          1 MOL1         0.0832
       9    H6      20.697121   21.909578   24.062357 H          1 MOL1         0.0832
      10    C4      19.137219   20.736801   23.123644 C.3        1 MOL1        -0.1761
      11    H7      18.749235   20.243701   24.023966 H          1 MOL1         0.0832
      12    H8      18.574594   21.674870   23.033852 H          1 MOL1         0.0832
      13    C5      18.805330   19.883823   21.872121 C.3        1 MOL1         0.1218
      14    H9      17.723451   19.982148   21.701393 H          1 MOL1         0.0789
      15    C6      19.085807   18.363537   21.995431 C.3        1 MOL1        -0.1761
      16    H10     18.150366   17.869215   22.288106 H          1 MOL1         0.0832
      17    H11     19.325026   17.962152   21.001884 H          1 MOL1         0.0832
      18    C7      20.183185   17.910337   22.990051 C.3        1 MOL1        -0.1685
      19    H12     19.798686   17.959877   24.017728 H          1 MOL1         0.0832
      20    H13     20.387292   16.847280   22.803160 H          1 MOL1         0.0832
      21    O1      19.471604   20.402898   20.724270 O.3        1 MOL1        -0.5509
      22    H14     19.194642   19.852723   19.963672 H          1 MOL1         0.3779
@<TRIPOS>BOND
    1     1     2    1
    2     1     3    1
    3     1     4    1
    4     4     5    1
    5     4     6    1
    6     4     7    1
    7     7     8    1
    8     7     9    1
    9     7    10    1
   10    10    11    1
   11    10    12    1
   12    10    13    1
   13    13    14    1
   14    13    15    1
   15    15    16    1
   16    15    17    1
   17     1    18    1
   18    15    18    1
   19    18    19    1
   20    18    20    1
   21    13    21    1
   22    21    22    1
@<TRIPOS>SUBSTRUCTURE
       1 MOL1            1 RESIDUE      1      MOL     
@<SCITEGIC>MOL_PROPERTY
VConf Rank
SciTegic.value.IntegerValue
270

@<SCITEGIC>MOL_PROPERTY
Conf_Id
SciTegic.value.IntegerValue
104

@<SCITEGIC>MOL_PROPERTY
Delta U+W
SciTegic.value.DoubleValue
-1.172

@<SCITEGIC>MOL_PROPERTY
U+W
SciTegic.value.DoubleValue
5.252

@<SCITEGIC>MOL_PROPERTY
Grad RMS
SciTegic.value.DoubleValue
0.000000

@<SCITEGIC>MOL_PROPERTY
U
SciTegic.value.DoubleValue
7.482

@<SCITEGIC>MOL_PROPERTY
W
SciTegic.value.DoubleValue
-2.230

@<SCITEGIC>MOL_PROPERTY
W(PB)
SciTegic.value.DoubleValue
-4.220

@<SCITEGIC>MOL_PROPERTY
W(SA)
SciTegic.value.DoubleValue
1.990

@<SCITEGIC>MOL_PROPERTY
Valence
SciTegic.value.DoubleValue
12.309

@<SCITEGIC>MOL_PROPERTY
Coulomb
SciTegic.value.DoubleValue
-7.084

@<SCITEGIC>MOL_PROPERTY
VdW
SciTegic.value.DoubleValue
2.258

@<SCITEGIC>MOL_PROPERTY
VdW6
SciTegic.value.DoubleValue
-9.770

@<SCITEGIC>MOL_PROPERTY
VdW12
SciTegic.value.DoubleValue
12.028

@<SCITEGIC>MOL_PROPERTY
Bond
SciTegic.value.DoubleValue
0.284

@<SCITEGIC>MOL_PROPERTY
Angle
SciTegic.value.DoubleValue
3.491

@<SCITEGIC>MOL_PROPERTY
Pdih
SciTegic.value.DoubleValue
8.535

@<SCITEGIC>MOL_PROPERTY
Idih
SciTegic.value.DoubleValue
0.000

@<SCITEGIC>MOL_PROPERTY
Tether
SciTegic.value.DoubleValue
0.000

@<TRIPOS>MOLECULE
guest-5_confgen4.mol2 : confsearch ligand conformer 271
          22          22           1
SMALL
USER_CHARGES
 
@<TRIPOS>ATOM
       1    C1      18.955736   20.734151   22.264544 C.3        1 MOL1        -0.1685
       2    H1      18.570306   20.814277   23.289974 H          1 MOL1         0.0832
       3    H2      18.353310   21.426260   21.660386 H          1 MOL1         0.0832
       4    C2      18.742674   19.309282   21.704332 C.3        1 MOL1        -0.1685
       5    H3      17.698062   19.214012   21.377288 H          1 MOL1         0.0832
       6    H4      19.338616   19.184877   20.790706 H          1 MOL1         0.0832
       7    C3      19.036291   18.149559   22.689475 C.3        1 MOL1        -0.1685
       8    H5      19.292886   17.254377   22.106274 H          1 MOL1         0.0832
       9    H6      18.105743   17.897024   23.216006 H          1 MOL1         0.0832
      10    C4      20.131462   18.388742   23.763996 C.3        1 MOL1        -0.1761
      11    H7      19.709125   18.990694   24.579006 H          1 MOL1         0.0832
      12    H8      20.376886   17.420378   24.219013 H          1 MOL1         0.0832
      13    C5      21.449078   19.045892   23.292804 C.3        1 MOL1         0.1218
      14    H9      22.224664   18.787110   24.027908 H          1 MOL1         0.0789
      15    C6      21.369249   20.588691   23.251995 C.3        1 MOL1        -0.1761
      16    H10     21.070136   20.951611   24.243903 H          1 MOL1         0.0832
      17    H11     22.381911   20.979438   23.087444 H          1 MOL1         0.0832
      18    C7      20.427778   21.204435   22.187437 C.3        1 MOL1        -0.1685
      19    H12     20.448076   22.295724   22.311481 H          1 MOL1         0.0832
      20    H13     20.827517   21.014415   21.182161 H          1 MOL1         0.0832
      21    O1      21.831112   18.541918   22.022280 O.3        1 MOL1        -0.5509
      22    H14     21.063091   18.734654   21.448448 H          1 MOL1         0.3779
@<TRIPOS>BOND
    1     1     2    1
    2     1     3    1
    3     1     4    1
    4     4     5    1
    5     4     6    1
    6     4     7    1
    7     7     8    1
    8     7     9    1
    9     7    10    1
   10    10    11    1
   11    10    12    1
   12    10    13    1
   13    13    14    1
   14    13    15    1
   15    15    16    1
   16    15    17    1
   17     1    18    1
   18    15    18    1
   19    18    19    1
   20    18    20    1
   21    13    21    1
   22    21    22    1
@<TRIPOS>SUBSTRUCTURE
       1 MOL1            1 RESIDUE      1      MOL     
@<SCITEGIC>MOL_PROPERTY
VConf Rank
SciTegic.value.IntegerValue
271

@<SCITEGIC>MOL_PROPERTY
Conf_Id
SciTegic.value.IntegerValue
99

@<SCITEGIC>MOL_PROPERTY
Delta U+W
SciTegic.value.DoubleValue
-3.852

@<SCITEGIC>MOL_PROPERTY
U+W
SciTegic.value.DoubleValue
2.572

@<SCITEGIC>MOL_PROPERTY
Grad RMS
SciTegic.value.DoubleValue
0.000000

@<SCITEGIC>MOL_PROPERTY
U
SciTegic.value.DoubleValue
3.922

@<SCITEGIC>MOL_PROPERTY
W
SciTegic.value.DoubleValue
-1.350

@<SCITEGIC>MOL_PROPERTY
W(PB)
SciTegic.value.DoubleValue
-3.345

@<SCITEGIC>MOL_PROPERTY
W(SA)
SciTegic.value.DoubleValue
1.995

@<SCITEGIC>MOL_PROPERTY
Valence
SciTegic.value.DoubleValue
12.571

@<SCITEGIC>MOL_PROPERTY
Coulomb
SciTegic.value.DoubleValue
-10.581

@<SCITEGIC>MOL_PROPERTY
VdW
SciTegic.value.DoubleValue
1.932

@<SCITEGIC>MOL_PROPERTY
VdW6
SciTegic.value.DoubleValue
-10.483

@<SCITEGIC>MOL_PROPERTY
VdW12
SciTegic.value.DoubleValue
12.415

@<SCITEGIC>MOL_PROPERTY
Bond
SciTegic.value.DoubleValue
0.268

@<SCITEGIC>MOL_PROPERTY
Angle
SciTegic.value.DoubleValue
3.728

@<SCITEGIC>MOL_PROPERTY
Pdih
SciTegic.value.DoubleValue
8.575

@<SCITEGIC>MOL_PROPERTY
Idih
SciTegic.value.DoubleValue
0.000

@<SCITEGIC>MOL_PROPERTY
Tether
SciTegic.value.DoubleValue
0.000

@<TRIPOS>MOLECULE
guest-5_confgen4.mol2 : confsearch ligand conformer 272
          22          22           1
SMALL
USER_CHARGES
 
@<TRIPOS>ATOM
       1    C1      20.657622   19.723852   24.233533 C.3        1 MOL1        -0.1685
       2    H1      20.641817   20.165077   25.239695 H          1 MOL1         0.0832
       3    H2      21.457881   18.972483   24.266480 H          1 MOL1         0.0832
       4    C2      21.021626   20.851313   23.223492 C.3        1 MOL1        -0.1685
       5    H3      21.163534   21.780500   23.792495 H          1 MOL1         0.0832
       6    H4      21.998759   20.647940   22.765338 H          1 MOL1         0.0832
       7    C3      19.976487   21.132156   22.113735 C.3        1 MOL1        -0.1685
       8    H5      20.258283   22.061105   21.599565 H          1 MOL1         0.0832
       9    H6      19.003238   21.353527   22.569094 H          1 MOL1         0.0832
      10    C4      19.811849   20.024042   21.036792 C.3        1 MOL1        -0.1761
      11    H7      18.824295   20.141255   20.572313 H          1 MOL1         0.0832
      12    H8      20.535033   20.212360   20.232095 H          1 MOL1         0.0832
      13    C5      19.975322   18.547663   21.474673 C.3        1 MOL1         0.1218
      14    H9      19.604270   17.926143   20.647141 H          1 MOL1         0.0789
      15    C6      19.197222   18.119043   22.743133 C.3        1 MOL1        -0.1761
      16    H10     18.137057   18.010866   22.480288 H          1 MOL1         0.0832
      17    H11     19.533884   17.108945   23.012127 H          1 MOL1         0.0832
      18    C7      19.295074   19.021112   24.004678 C.3        1 MOL1        -0.1685
      19    H12     18.491317   19.767643   23.989369 H          1 MOL1         0.0832
      20    H13     19.075490   18.397135   24.881696 H          1 MOL1         0.0832
      21    O1      21.352846   18.249112   21.637573 O.3        1 MOL1        -0.5509
      22    H14     21.632966   18.822631   22.378884 H          1 MOL1         0.3779
@<TRIPOS>BOND
    1     1     2    1
    2     1     3    1
    3     1     4    1
    4     4     5    1
    5     4     6    1
    6     4     7    1
    7     7     8    1
    8     7     9    1
    9     7    10    1
   10    10    11    1
   11    10    12    1
   12    10    13    1
   13    13    14    1
   14    13    15    1
   15    15    16    1
   16    15    17    1
   17     1    18    1
   18    15    18    1
   19    18    19    1
   20    18    20    1
   21    13    21    1
   22    21    22    1
@<TRIPOS>SUBSTRUCTURE
       1 MOL1            1 RESIDUE      1      MOL     
@<SCITEGIC>MOL_PROPERTY
VConf Rank
SciTegic.value.IntegerValue
272

@<SCITEGIC>MOL_PROPERTY
Conf_Id
SciTegic.value.IntegerValue
98

@<SCITEGIC>MOL_PROPERTY
Delta U+W
SciTegic.value.DoubleValue
0.930

@<SCITEGIC>MOL_PROPERTY
U+W
SciTegic.value.DoubleValue
7.353

@<SCITEGIC>MOL_PROPERTY
Grad RMS
SciTegic.value.DoubleValue
0.000000

@<SCITEGIC>MOL_PROPERTY
U
SciTegic.value.DoubleValue
8.455

@<SCITEGIC>MOL_PROPERTY
W
SciTegic.value.DoubleValue
-1.102

@<SCITEGIC>MOL_PROPERTY
W(PB)
SciTegic.value.DoubleValue
-3.101

@<SCITEGIC>MOL_PROPERTY
W(SA)
SciTegic.value.DoubleValue
2.000

@<SCITEGIC>MOL_PROPERTY
Valence
SciTegic.value.DoubleValue
15.601

@<SCITEGIC>MOL_PROPERTY
Coulomb
SciTegic.value.DoubleValue
-10.573

@<SCITEGIC>MOL_PROPERTY
VdW
SciTegic.value.DoubleValue
3.427

@<SCITEGIC>MOL_PROPERTY
VdW6
SciTegic.value.DoubleValue
-11.360

@<SCITEGIC>MOL_PROPERTY
VdW12
SciTegic.value.DoubleValue
14.787

@<SCITEGIC>MOL_PROPERTY
Bond
SciTegic.value.DoubleValue
0.471

@<SCITEGIC>MOL_PROPERTY
Angle
SciTegic.value.DoubleValue
5.445

@<SCITEGIC>MOL_PROPERTY
Pdih
SciTegic.value.DoubleValue
9.685

@<SCITEGIC>MOL_PROPERTY
Idih
SciTegic.value.DoubleValue
0.000

@<SCITEGIC>MOL_PROPERTY
Tether
SciTegic.value.DoubleValue
0.000

@<TRIPOS>MOLECULE
guest-5_confgen4.mol2 : confsearch ligand conformer 273
          22          22           1
SMALL
USER_CHARGES
 
@<TRIPOS>ATOM
       1    C1      19.125443   18.227078   21.981318 C.3        1 MOL1        -0.1685
       2    H1      18.964296   18.859851   21.099043 H          1 MOL1         0.0832
       3    H2      18.656767   17.265388   21.731905 H          1 MOL1         0.0832
       4    C2      18.388133   18.833160   23.202464 C.3        1 MOL1        -0.1685
       5    H3      17.321068   18.892930   22.948149 H          1 MOL1         0.0832
       6    H4      18.452978   18.140148   24.052261 H          1 MOL1         0.0832
       7    C3      18.856552   20.243412   23.656797 C.3        1 MOL1        -0.1685
       8    H5      19.480083   20.161150   24.556495 H          1 MOL1         0.0832
       9    H6      17.972400   20.811412   23.976616 H          1 MOL1         0.0832
      10    C4      19.611196   21.064393   22.577810 C.3        1 MOL1        -0.1761
      11    H7      19.011281   21.089278   21.659600 H          1 MOL1         0.0832
      12    H8      19.659486   22.109858   22.911066 H          1 MOL1         0.0832
      13    C5      21.049850   20.577570   22.235539 C.3        1 MOL1         0.1218
      14    H9      21.150911   20.562458   21.140722 H          1 MOL1         0.0789
      15    C6      21.437537   19.178269   22.775829 C.3        1 MOL1        -0.1761
      16    H10     22.502782   19.003004   22.576848 H          1 MOL1         0.0832
      17    H11     21.345845   19.166127   23.868548 H          1 MOL1         0.0832
      18    C7      20.641538   17.991470   22.177749 C.3        1 MOL1        -0.1685
      19    H12     21.075256   17.727571   21.203552 H          1 MOL1         0.0832
      20    H13     20.789408   17.113506   22.821166 H          1 MOL1         0.0832
      21    O1      21.980734   21.513067   22.767964 O.3        1 MOL1        -0.5509
      22    H14     22.871709   21.214703   22.489895 H          1 MOL1         0.3779
@<TRIPOS>BOND
    1     1     2    1
    2     1     3    1
    3     1     4    1
    4     4     5    1
    5     4     6    1
    6     4     7    1
    7     7     8    1
    8     7     9    1
    9     7    10    1
   10    10    11    1
   11    10    12    1
   12    10    13    1
   13    13    14    1
   14    13    15    1
   15    15    16    1
   16    15    17    1
   17     1    18    1
   18    15    18    1
   19    18    19    1
   20    18    20    1
   21    13    21    1
   22    21    22    1
@<TRIPOS>SUBSTRUCTURE
       1 MOL1            1 RESIDUE      1      MOL     
@<SCITEGIC>MOL_PROPERTY
VConf Rank
SciTegic.value.IntegerValue
273

@<SCITEGIC>MOL_PROPERTY
Conf_Id
SciTegic.value.IntegerValue
141

@<SCITEGIC>MOL_PROPERTY
Delta U+W
SciTegic.value.DoubleValue
0.000

@<SCITEGIC>MOL_PROPERTY
U+W
SciTegic.value.DoubleValue
6.423

@<SCITEGIC>MOL_PROPERTY
Grad RMS
SciTegic.value.DoubleValue
0.000000

@<SCITEGIC>MOL_PROPERTY
U
SciTegic.value.DoubleValue
8.781

@<SCITEGIC>MOL_PROPERTY
W
SciTegic.value.DoubleValue
-2.358

@<SCITEGIC>MOL_PROPERTY
W(PB)
SciTegic.value.DoubleValue
-4.373

@<SCITEGIC>MOL_PROPERTY
W(SA)
SciTegic.value.DoubleValue
2.015

@<SCITEGIC>MOL_PROPERTY
Valence
SciTegic.value.DoubleValue
13.328

@<SCITEGIC>MOL_PROPERTY
Coulomb
SciTegic.value.DoubleValue
-8.387

@<SCITEGIC>MOL_PROPERTY
VdW
SciTegic.value.DoubleValue
3.840

@<SCITEGIC>MOL_PROPERTY
VdW6
SciTegic.value.DoubleValue
-9.744

@<SCITEGIC>MOL_PROPERTY
VdW12
SciTegic.value.DoubleValue
13.584

@<SCITEGIC>MOL_PROPERTY
Bond
SciTegic.value.DoubleValue
0.436

@<SCITEGIC>MOL_PROPERTY
Angle
SciTegic.value.DoubleValue
3.478

@<SCITEGIC>MOL_PROPERTY
Pdih
SciTegic.value.DoubleValue
9.415

@<SCITEGIC>MOL_PROPERTY
Idih
SciTegic.value.DoubleValue
0.000

@<SCITEGIC>MOL_PROPERTY
Tether
SciTegic.value.DoubleValue
0.000

@<TRIPOS>MOLECULE
guest-5_confgen4.mol2 : confsearch ligand conformer 274
          22          22           1
SMALL
USER_CHARGES
 
@<TRIPOS>ATOM
       1    C1      18.958995   21.004457   22.405390 C.3        1 MOL1        -0.1685
       2    H1      18.881674   21.116303   23.495399 H          1 MOL1         0.0832
       3    H2      18.404334   21.848644   21.973412 H          1 MOL1         0.0832
       4    C2      18.272384   19.700331   21.932659 C.3        1 MOL1        -0.1685
       5    H3      17.188389   19.802859   22.078597 H          1 MOL1         0.0832
       6    H4      18.417995   19.583937   20.850010 H          1 MOL1         0.0832
       7    C3      18.736078   18.412864   22.652207 C.3        1 MOL1        -0.1685
       8    H5      18.229678   17.557704   22.184140 H          1 MOL1         0.0832
       9    H6      18.389462   18.432417   23.694529 H          1 MOL1         0.0832
      10    C4      20.263295   18.160210   22.621329 C.3        1 MOL1        -0.1761
      11    H7      20.435495   17.126848   22.949956 H          1 MOL1         0.0832
      12    H8      20.645285   18.221691   21.594050 H          1 MOL1         0.0832
      13    C5      21.045268   19.118212   23.547816 C.3        1 MOL1         0.1218
      14    H9      20.412965   19.348581   24.417278 H          1 MOL1         0.0789
      15    C6      21.464666   20.450893   22.886482 C.3        1 MOL1        -0.1761
      16    H10     21.709448   21.156990   23.690446 H          1 MOL1         0.0832
      17    H11     22.396139   20.300355   22.324516 H          1 MOL1         0.0832
      18    C7      20.430451   21.112210   21.941440 C.3        1 MOL1        -0.1685
      19    H12     20.695114   22.173379   21.838000 H          1 MOL1         0.0832
      20    H13     20.527843   20.685463   20.933913 H          1 MOL1         0.0832
      21    O1      22.222914   18.460173   23.998763 O.3        1 MOL1        -0.5509
      22    H14     21.931187   17.657987   24.480439 H          1 MOL1         0.3779
@<TRIPOS>BOND
    1     1     2    1
    2     1     3    1
    3     1     4    1
    4     4     5    1
    5     4     6    1
    6     4     7    1
    7     7     8    1
    8     7     9    1
    9     7    10    1
   10    10    11    1
   11    10    12    1
   12    10    13    1
   13    13    14    1
   14    13    15    1
   15    15    16    1
   16    15    17    1
   17     1    18    1
   18    15    18    1
   19    18    19    1
   20    18    20    1
   21    13    21    1
   22    21    22    1
@<TRIPOS>SUBSTRUCTURE
       1 MOL1            1 RESIDUE      1      MOL     
@<SCITEGIC>MOL_PROPERTY
VConf Rank
SciTegic.value.IntegerValue
274

@<SCITEGIC>MOL_PROPERTY
Conf_Id
SciTegic.value.IntegerValue
144

@<SCITEGIC>MOL_PROPERTY
Delta U+W
SciTegic.value.DoubleValue
-3.291

@<SCITEGIC>MOL_PROPERTY
U+W
SciTegic.value.DoubleValue
3.132

@<SCITEGIC>MOL_PROPERTY
Grad RMS
SciTegic.value.DoubleValue
0.000000

@<SCITEGIC>MOL_PROPERTY
U
SciTegic.value.DoubleValue
5.411

@<SCITEGIC>MOL_PROPERTY
W
SciTegic.value.DoubleValue
-2.279

@<SCITEGIC>MOL_PROPERTY
W(PB)
SciTegic.value.DoubleValue
-4.300

@<SCITEGIC>MOL_PROPERTY
W(SA)
SciTegic.value.DoubleValue
2.021

@<SCITEGIC>MOL_PROPERTY
Valence
SciTegic.value.DoubleValue
11.909

@<SCITEGIC>MOL_PROPERTY
Coulomb
SciTegic.value.DoubleValue
-8.733

@<SCITEGIC>MOL_PROPERTY
VdW
SciTegic.value.DoubleValue
2.236

@<SCITEGIC>MOL_PROPERTY
VdW6
SciTegic.value.DoubleValue
-8.936

@<SCITEGIC>MOL_PROPERTY
VdW12
SciTegic.value.DoubleValue
11.172

@<SCITEGIC>MOL_PROPERTY
Bond
SciTegic.value.DoubleValue
0.223

@<SCITEGIC>MOL_PROPERTY
Angle
SciTegic.value.DoubleValue
2.457

@<SCITEGIC>MOL_PROPERTY
Pdih
SciTegic.value.DoubleValue
9.228

@<SCITEGIC>MOL_PROPERTY
Idih
SciTegic.value.DoubleValue
0.000

@<SCITEGIC>MOL_PROPERTY
Tether
SciTegic.value.DoubleValue
0.000

@<TRIPOS>MOLECULE
guest-5_confgen4.mol2 : confsearch ligand conformer 275
          22          22           1
SMALL
USER_CHARGES
 
@<TRIPOS>ATOM
       1    C1      19.863087   18.549115   24.063818 C.3        1 MOL1        -0.1685
       2    H1      19.523489   17.942899   24.914739 H          1 MOL1         0.0832
       3    H2      20.960860   18.516412   24.086300 H          1 MOL1         0.0832
       4    C2      19.350422   19.993567   24.270722 C.3        1 MOL1        -0.1685
       5    H3      18.309368   20.064703   23.927328 H          1 MOL1         0.0832
       6    H4      19.318798   20.208580   25.347647 H          1 MOL1         0.0832
       7    C3      20.198376   21.094896   23.589567 C.3        1 MOL1        -0.1685
       8    H5      21.044412   21.349613   24.242451 H          1 MOL1         0.0832
       9    H6      19.587567   22.005744   23.524094 H          1 MOL1         0.0832
      10    C4      20.757260   20.760743   22.184529 C.3        1 MOL1        -0.1761
      11    H7      21.033838   21.706619   21.699458 H          1 MOL1         0.0832
      12    H8      21.693029   20.197392   22.293458 H          1 MOL1         0.0832
      13    C5      19.791583   19.975041   21.269251 C.3        1 MOL1         0.1218
      14    H9      18.757401   20.290339   21.468059 H          1 MOL1         0.0789
      15    C6      19.912124   18.445339   21.454889 C.3        1 MOL1        -0.1761
      16    H10     19.402447   17.948360   20.618605 H          1 MOL1         0.0832
      17    H11     20.967130   18.149932   21.385725 H          1 MOL1         0.0832
      18    C7      19.316577   17.894574   22.772348 C.3        1 MOL1        -0.1685
      19    H12     18.222838   17.994732   22.747264 H          1 MOL1         0.0832
      20    H13     19.517197   16.815342   22.814750 H          1 MOL1         0.0832
      21    O1      20.111855   20.277073   19.917802 O.3        1 MOL1        -0.5509
      22    H14     21.036414   19.984612   19.780626 H          1 MOL1         0.3779
@<TRIPOS>BOND
    1     1     2    1
    2     1     3    1
    3     1     4    1
    4     4     5    1
    5     4     6    1
    6     4     7    1
    7     7     8    1
    8     7     9    1
    9     7    10    1
   10    10    11    1
   11    10    12    1
   12    10    13    1
   13    13    14    1
   14    13    15    1
   15    15    16    1
   16    15    17    1
   17     1    18    1
   18    15    18    1
   19    18    19    1
   20    18    20    1
   21    13    21    1
   22    21    22    1
@<TRIPOS>SUBSTRUCTURE
       1 MOL1            1 RESIDUE      1      MOL     
@<SCITEGIC>MOL_PROPERTY
VConf Rank
SciTegic.value.IntegerValue
275

@<SCITEGIC>MOL_PROPERTY
Conf_Id
SciTegic.value.IntegerValue
76

@<SCITEGIC>MOL_PROPERTY
Delta U+W
SciTegic.value.DoubleValue
-3.175

@<SCITEGIC>MOL_PROPERTY
U+W
SciTegic.value.DoubleValue
3.248

@<SCITEGIC>MOL_PROPERTY
Grad RMS
SciTegic.value.DoubleValue
0.000000

@<SCITEGIC>MOL_PROPERTY
U
SciTegic.value.DoubleValue
5.336

@<SCITEGIC>MOL_PROPERTY
W
SciTegic.value.DoubleValue
-2.088

@<SCITEGIC>MOL_PROPERTY
W(PB)
SciTegic.value.DoubleValue
-4.098

@<SCITEGIC>MOL_PROPERTY
W(SA)
SciTegic.value.DoubleValue
2.010

@<SCITEGIC>MOL_PROPERTY
Valence
SciTegic.value.DoubleValue
12.390

@<SCITEGIC>MOL_PROPERTY
Coulomb
SciTegic.value.DoubleValue
-9.270

@<SCITEGIC>MOL_PROPERTY
VdW
SciTegic.value.DoubleValue
2.216

@<SCITEGIC>MOL_PROPERTY
VdW6
SciTegic.value.DoubleValue
-8.967

@<SCITEGIC>MOL_PROPERTY
VdW12
SciTegic.value.DoubleValue
11.183

@<SCITEGIC>MOL_PROPERTY
Bond
SciTegic.value.DoubleValue
0.218

@<SCITEGIC>MOL_PROPERTY
Angle
SciTegic.value.DoubleValue
2.426

@<SCITEGIC>MOL_PROPERTY
Pdih
SciTegic.value.DoubleValue
9.745

@<SCITEGIC>MOL_PROPERTY
Idih
SciTegic.value.DoubleValue
0.000

@<SCITEGIC>MOL_PROPERTY
Tether
SciTegic.value.DoubleValue
0.000

@<TRIPOS>MOLECULE
guest-5_confgen4.mol2 : confsearch ligand conformer 276
          22          22           1
SMALL
USER_CHARGES
 
@<TRIPOS>ATOM
       1    C1      21.265581   18.440691   21.772713 C.3        1 MOL1        -0.1685
       2    H1      22.020254   18.740078   21.032702 H          1 MOL1         0.0832
       3    H2      21.411358   17.362966   21.927870 H          1 MOL1         0.0832
       4    C2      19.865055   18.673764   21.157183 C.3        1 MOL1        -0.1685
       5    H3      19.883026   19.580928   20.538143 H          1 MOL1         0.0832
       6    H4      19.658035   17.848361   20.462463 H          1 MOL1         0.0832
       7    C3      18.708976   18.771506   22.179664 C.3        1 MOL1        -0.1685
       8    H5      18.860257   18.071782   23.012933 H          1 MOL1         0.0832
       9    H6      17.783842   18.454469   21.679757 H          1 MOL1         0.0832
      10    C4      18.491728   20.213828   22.703677 C.3        1 MOL1        -0.1761
      11    H7      18.415847   20.900028   21.850515 H          1 MOL1         0.0832
      12    H8      17.517107   20.260505   23.207014 H          1 MOL1         0.0832
      13    C5      19.559549   20.753008   23.682524 C.3        1 MOL1         0.1218
      14    H9      19.360189   21.826949   23.809030 H          1 MOL1         0.0789
      15    C6      21.025428   20.615306   23.200108 C.3        1 MOL1        -0.1761
      16    H10     21.147581   21.119193   22.232608 H          1 MOL1         0.0832
      17    H11     21.659153   21.169535   23.904388 H          1 MOL1         0.0832
      18    C7      21.556066   19.160753   23.111128 C.3        1 MOL1        -0.1685
      19    H12     22.644441   19.171839   23.258567 H          1 MOL1         0.0832
      20    H13     21.156579   18.562563   23.940597 H          1 MOL1         0.0832
      21    O1      19.399081   20.120058   24.948085 O.3        1 MOL1        -0.5509
      22    H14     20.123085   20.449697   25.518559 H          1 MOL1         0.3779
@<TRIPOS>BOND
    1     1     2    1
    2     1     3    1
    3     1     4    1
    4     4     5    1
    5     4     6    1
    6     4     7    1
    7     7     8    1
    8     7     9    1
    9     7    10    1
   10    10    11    1
   11    10    12    1
   12    10    13    1
   13    13    14    1
   14    13    15    1
   15    15    16    1
   16    15    17    1
   17     1    18    1
   18    15    18    1
   19    18    19    1
   20    18    20    1
   21    13    21    1
   22    21    22    1
@<TRIPOS>SUBSTRUCTURE
       1 MOL1            1 RESIDUE      1      MOL     
@<SCITEGIC>MOL_PROPERTY
VConf Rank
SciTegic.value.IntegerValue
276

@<SCITEGIC>MOL_PROPERTY
Conf_Id
SciTegic.value.IntegerValue
95

@<SCITEGIC>MOL_PROPERTY
Delta U+W
SciTegic.value.DoubleValue
-2.289

@<SCITEGIC>MOL_PROPERTY
U+W
SciTegic.value.DoubleValue
4.134

@<SCITEGIC>MOL_PROPERTY
Grad RMS
SciTegic.value.DoubleValue
0.000000

@<SCITEGIC>MOL_PROPERTY
U
SciTegic.value.DoubleValue
6.373

@<SCITEGIC>MOL_PROPERTY
W
SciTegic.value.DoubleValue
-2.240

@<SCITEGIC>MOL_PROPERTY
W(PB)
SciTegic.value.DoubleValue
-4.254

@<SCITEGIC>MOL_PROPERTY
W(SA)
SciTegic.value.DoubleValue
2.015

@<SCITEGIC>MOL_PROPERTY
Valence
SciTegic.value.DoubleValue
12.093

@<SCITEGIC>MOL_PROPERTY
Coulomb
SciTegic.value.DoubleValue
-8.058

@<SCITEGIC>MOL_PROPERTY
VdW
SciTegic.value.DoubleValue
2.339

@<SCITEGIC>MOL_PROPERTY
VdW6
SciTegic.value.DoubleValue
-9.683

@<SCITEGIC>MOL_PROPERTY
VdW12
SciTegic.value.DoubleValue
12.022

@<SCITEGIC>MOL_PROPERTY
Bond
SciTegic.value.DoubleValue
0.268

@<SCITEGIC>MOL_PROPERTY
Angle
SciTegic.value.DoubleValue
3.005

@<SCITEGIC>MOL_PROPERTY
Pdih
SciTegic.value.DoubleValue
8.820

@<SCITEGIC>MOL_PROPERTY
Idih
SciTegic.value.DoubleValue
0.000

@<SCITEGIC>MOL_PROPERTY
Tether
SciTegic.value.DoubleValue
0.000

@<TRIPOS>MOLECULE
guest-5_confgen4.mol2 : confsearch ligand conformer 277
          22          22           1
SMALL
USER_CHARGES
 
@<TRIPOS>ATOM
       1    C1      20.352973   21.503247   22.916982 C.3        1 MOL1        -0.1685
       2    H1      19.610291   22.295797   23.081426 H          1 MOL1         0.0832
       3    H2      21.331117   22.002901   22.936217 H          1 MOL1         0.0832
       4    C2      20.121941   20.908430   21.507320 C.3        1 MOL1        -0.1685
       5    H3      19.045276   20.887688   21.290892 H          1 MOL1         0.0832
       6    H4      20.555601   21.599901   20.772060 H          1 MOL1         0.0832
       7    C3      20.719099   19.499419   21.284598 C.3        1 MOL1        -0.1685
       8    H5      21.685525   19.396490   21.796698 H          1 MOL1         0.0832
       9    H6      20.928279   19.384095   20.212511 H          1 MOL1         0.0832
      10    C4      19.747632   18.366131   21.700793 C.3        1 MOL1        -0.1761
      11    H7      18.767633   18.546297   21.240317 H          1 MOL1         0.0832
      12    H8      20.103422   17.422244   21.267812 H          1 MOL1         0.0832
      13    C5      19.549892   18.161044   23.220192 C.3        1 MOL1         0.1218
      14    H9      18.715154   17.455286   23.339430 H          1 MOL1         0.0789
      15    C6      19.180725   19.439328   24.013944 C.3        1 MOL1        -0.1761
      16    H10     18.265598   19.884346   23.602860 H          1 MOL1         0.0832
      17    H11     18.928910   19.125442   25.035165 H          1 MOL1         0.0832
      18    C7      20.301094   20.508276   24.100922 C.3        1 MOL1        -0.1685
      19    H12     20.163941   21.088450   25.023312 H          1 MOL1         0.0832
      20    H13     21.277358   20.017684   24.209772 H          1 MOL1         0.0832
      21    O1      20.718851   17.562803   23.772041 O.3        1 MOL1        -0.5509
      22    H14     20.916022   16.774516   23.226227 H          1 MOL1         0.3779
@<TRIPOS>BOND
    1     1     2    1
    2     1     3    1
    3     1     4    1
    4     4     5    1
    5     4     6    1
    6     4     7    1
    7     7     8    1
    8     7     9    1
    9     7    10    1
   10    10    11    1
   11    10    12    1
   12    10    13    1
   13    13    14    1
   14    13    15    1
   15    15    16    1
   16    15    17    1
   17     1    18    1
   18    15    18    1
   19    18    19    1
   20    18    20    1
   21    13    21    1
   22    21    22    1
@<TRIPOS>SUBSTRUCTURE
       1 MOL1            1 RESIDUE      1      MOL     
@<SCITEGIC>MOL_PROPERTY
VConf Rank
SciTegic.value.IntegerValue
277

@<SCITEGIC>MOL_PROPERTY
Conf_Id
SciTegic.value.IntegerValue
41

@<SCITEGIC>MOL_PROPERTY
Delta U+W
SciTegic.value.DoubleValue
-2.114

@<SCITEGIC>MOL_PROPERTY
U+W
SciTegic.value.DoubleValue
4.310

@<SCITEGIC>MOL_PROPERTY
Grad RMS
SciTegic.value.DoubleValue
0.000000

@<SCITEGIC>MOL_PROPERTY
U
SciTegic.value.DoubleValue
6.598

@<SCITEGIC>MOL_PROPERTY
W
SciTegic.value.DoubleValue
-2.289

@<SCITEGIC>MOL_PROPERTY
W(PB)
SciTegic.value.DoubleValue
-4.294

@<SCITEGIC>MOL_PROPERTY
W(SA)
SciTegic.value.DoubleValue
2.005

@<SCITEGIC>MOL_PROPERTY
Valence
SciTegic.value.DoubleValue
12.082

@<SCITEGIC>MOL_PROPERTY
Coulomb
SciTegic.value.DoubleValue
-7.801

@<SCITEGIC>MOL_PROPERTY
VdW
SciTegic.value.DoubleValue
2.317

@<SCITEGIC>MOL_PROPERTY
VdW6
SciTegic.value.DoubleValue
-9.658

@<SCITEGIC>MOL_PROPERTY
VdW12
SciTegic.value.DoubleValue
11.975

@<SCITEGIC>MOL_PROPERTY
Bond
SciTegic.value.DoubleValue
0.267

@<SCITEGIC>MOL_PROPERTY
Angle
SciTegic.value.DoubleValue
3.051

@<SCITEGIC>MOL_PROPERTY
Pdih
SciTegic.value.DoubleValue
8.764

@<SCITEGIC>MOL_PROPERTY
Idih
SciTegic.value.DoubleValue
0.000

@<SCITEGIC>MOL_PROPERTY
Tether
SciTegic.value.DoubleValue
0.000

@<TRIPOS>MOLECULE
guest-5_confgen4.mol2 : confsearch ligand conformer 278
          22          22           1
SMALL
USER_CHARGES
 
@<TRIPOS>ATOM
       1    C1      20.972292   20.840179   22.172342 C.3        1 MOL1        -0.1685
       2    H1      21.748422   21.585624   21.952156 H          1 MOL1         0.0832
       3    H2      20.199087   20.963720   21.401583 H          1 MOL1         0.0832
       4    C2      20.401138   21.150634   23.574051 C.3        1 MOL1        -0.1685
       5    H3      21.170692   20.961349   24.334668 H          1 MOL1         0.0832
       6    H4      20.178236   22.224652   23.632010 H          1 MOL1         0.0832
       7    C3      19.117863   20.370385   23.934105 C.3        1 MOL1        -0.1685
       8    H5      18.289134   20.719198   23.303688 H          1 MOL1         0.0832
       9    H6      18.837365   20.636435   24.962046 H          1 MOL1         0.0832
      10    C4      19.238548   18.824829   23.845347 C.3        1 MOL1        -0.1761
      11    H7      20.113203   18.482088   24.412589 H          1 MOL1         0.0832
      12    H8      18.367351   18.393931   24.355176 H          1 MOL1         0.0832
      13    C5      19.272013   18.227511   22.414919 C.3        1 MOL1         0.1218
      14    H9      19.037109   17.157832   22.514338 H          1 MOL1         0.0789
      15    C6      20.636567   18.302815   21.681801 C.3        1 MOL1        -0.1761
      16    H10     21.157277   17.348893   21.836581 H          1 MOL1         0.0832
      17    H11     20.458679   18.361597   20.599964 H          1 MOL1         0.0832
      18    C7      21.611391   19.436586   22.085757 C.3        1 MOL1        -0.1685
      19    H12     22.096247   19.189369   23.039808 H          1 MOL1         0.0832
      20    H13     22.420290   19.464244   21.343062 H          1 MOL1         0.0832
      21    O1      18.259025   18.817610   21.604636 O.3        1 MOL1        -0.5509
      22    H14     18.301957   18.376148   20.732181 H          1 MOL1         0.3779
@<TRIPOS>BOND
    1     1     2    1
    2     1     3    1
    3     1     4    1
    4     4     5    1
    5     4     6    1
    6     4     7    1
    7     7     8    1
    8     7     9    1
    9     7    10    1
   10    10    11    1
   11    10    12    1
   12    10    13    1
   13    13    14    1
   14    13    15    1
   15    15    16    1
   16    15    17    1
   17     1    18    1
   18    15    18    1
   19    18    19    1
   20    18    20    1
   21    13    21    1
   22    21    22    1
@<TRIPOS>SUBSTRUCTURE
       1 MOL1            1 RESIDUE      1      MOL     
@<SCITEGIC>MOL_PROPERTY
VConf Rank
SciTegic.value.IntegerValue
278

@<SCITEGIC>MOL_PROPERTY
Conf_Id
SciTegic.value.IntegerValue
104

@<SCITEGIC>MOL_PROPERTY
Delta U+W
SciTegic.value.DoubleValue
-1.172

@<SCITEGIC>MOL_PROPERTY
U+W
SciTegic.value.DoubleValue
5.252

@<SCITEGIC>MOL_PROPERTY
Grad RMS
SciTegic.value.DoubleValue
0.000000

@<SCITEGIC>MOL_PROPERTY
U
SciTegic.value.DoubleValue
7.482

@<SCITEGIC>MOL_PROPERTY
W
SciTegic.value.DoubleValue
-2.230

@<SCITEGIC>MOL_PROPERTY
W(PB)
SciTegic.value.DoubleValue
-4.220

@<SCITEGIC>MOL_PROPERTY
W(SA)
SciTegic.value.DoubleValue
1.990

@<SCITEGIC>MOL_PROPERTY
Valence
SciTegic.value.DoubleValue
12.309

@<SCITEGIC>MOL_PROPERTY
Coulomb
SciTegic.value.DoubleValue
-7.084

@<SCITEGIC>MOL_PROPERTY
VdW
SciTegic.value.DoubleValue
2.258

@<SCITEGIC>MOL_PROPERTY
VdW6
SciTegic.value.DoubleValue
-9.770

@<SCITEGIC>MOL_PROPERTY
VdW12
SciTegic.value.DoubleValue
12.028

@<SCITEGIC>MOL_PROPERTY
Bond
SciTegic.value.DoubleValue
0.284

@<SCITEGIC>MOL_PROPERTY
Angle
SciTegic.value.DoubleValue
3.491

@<SCITEGIC>MOL_PROPERTY
Pdih
SciTegic.value.DoubleValue
8.535

@<SCITEGIC>MOL_PROPERTY
Idih
SciTegic.value.DoubleValue
0.000

@<SCITEGIC>MOL_PROPERTY
Tether
SciTegic.value.DoubleValue
0.000

@<TRIPOS>MOLECULE
guest-5_confgen4.mol2 : confsearch ligand conformer 279
          22          22           1
SMALL
USER_CHARGES
 
@<TRIPOS>ATOM
       1    C1      21.005349   20.856073   22.210240 C.3        1 MOL1        -0.1685
       2    H1      20.566104   21.533596   22.954894 H          1 MOL1         0.0832
       3    H2      21.737906   21.454850   21.651880 H          1 MOL1         0.0832
       4    C2      19.933931   20.366253   21.209429 C.3        1 MOL1        -0.1685
       5    H3      19.760168   21.157474   20.467119 H          1 MOL1         0.0832
       6    H4      20.333026   19.520355   20.634523 H          1 MOL1         0.0832
       7    C3      18.563081   19.987633   21.825134 C.3        1 MOL1        -0.1685
       8    H5      18.070556   19.265215   21.159666 H          1 MOL1         0.0832
       9    H6      17.919844   20.878179   21.814987 H          1 MOL1         0.0832
      10    C4      18.563814   19.427782   23.273502 C.3        1 MOL1        -0.1761
      11    H7      18.665064   20.261450   23.980398 H          1 MOL1         0.0832
      12    H8      17.572182   19.000976   23.472258 H          1 MOL1         0.0832
      13    C5      19.625033   18.356435   23.614102 C.3        1 MOL1         0.1218
      14    H9      19.258135   17.798969   24.487886 H          1 MOL1         0.0789
      15    C6      20.987443   18.966838   24.013496 C.3        1 MOL1        -0.1761
      16    H10     20.830576   19.659170   24.850831 H          1 MOL1         0.0832
      17    H11     21.619860   18.161905   24.410204 H          1 MOL1         0.0832
      18    C7      21.770888   19.699723   22.896408 C.3        1 MOL1        -0.1685
      19    H12     22.687533   20.109558   23.341951 H          1 MOL1         0.0832
      20    H13     22.107774   18.976279   22.141680 H          1 MOL1         0.0832
      21    O1      19.791178   17.456606   22.529264 O.3        1 MOL1        -0.5509
      22    H14     20.034263   18.032202   21.777010 H          1 MOL1         0.3779
@<TRIPOS>BOND
    1     1     2    1
    2     1     3    1
    3     1     4    1
    4     4     5    1
    5     4     6    1
    6     4     7    1
    7     7     8    1
    8     7     9    1
    9     7    10    1
   10    10    11    1
   11    10    12    1
   12    10    13    1
   13    13    14    1
   14    13    15    1
   15    15    16    1
   16    15    17    1
   17     1    18    1
   18    15    18    1
   19    18    19    1
   20    18    20    1
   21    13    21    1
   22    21    22    1
@<TRIPOS>SUBSTRUCTURE
       1 MOL1            1 RESIDUE      1      MOL     
@<SCITEGIC>MOL_PROPERTY
VConf Rank
SciTegic.value.IntegerValue
279

@<SCITEGIC>MOL_PROPERTY
Conf_Id
SciTegic.value.IntegerValue
99

@<SCITEGIC>MOL_PROPERTY
Delta U+W
SciTegic.value.DoubleValue
-3.852

@<SCITEGIC>MOL_PROPERTY
U+W
SciTegic.value.DoubleValue
2.572

@<SCITEGIC>MOL_PROPERTY
Grad RMS
SciTegic.value.DoubleValue
0.000000

@<SCITEGIC>MOL_PROPERTY
U
SciTegic.value.DoubleValue
3.922

@<SCITEGIC>MOL_PROPERTY
W
SciTegic.value.DoubleValue
-1.350

@<SCITEGIC>MOL_PROPERTY
W(PB)
SciTegic.value.DoubleValue
-3.345

@<SCITEGIC>MOL_PROPERTY
W(SA)
SciTegic.value.DoubleValue
1.995

@<SCITEGIC>MOL_PROPERTY
Valence
SciTegic.value.DoubleValue
12.571

@<SCITEGIC>MOL_PROPERTY
Coulomb
SciTegic.value.DoubleValue
-10.581

@<SCITEGIC>MOL_PROPERTY
VdW
SciTegic.value.DoubleValue
1.932

@<SCITEGIC>MOL_PROPERTY
VdW6
SciTegic.value.DoubleValue
-10.483

@<SCITEGIC>MOL_PROPERTY
VdW12
SciTegic.value.DoubleValue
12.415

@<SCITEGIC>MOL_PROPERTY
Bond
SciTegic.value.DoubleValue
0.268

@<SCITEGIC>MOL_PROPERTY
Angle
SciTegic.value.DoubleValue
3.728

@<SCITEGIC>MOL_PROPERTY
Pdih
SciTegic.value.DoubleValue
8.575

@<SCITEGIC>MOL_PROPERTY
Idih
SciTegic.value.DoubleValue
0.000

@<SCITEGIC>MOL_PROPERTY
Tether
SciTegic.value.DoubleValue
0.000

@<TRIPOS>MOLECULE
guest-5_confgen4.mol2 : confsearch ligand conformer 280
          22          22           1
SMALL
USER_CHARGES
 
@<TRIPOS>ATOM
       1    C1      20.974433   20.279613   21.452961 C.3        1 MOL1        -0.1685
       2    H1      21.928607   20.613327   21.022290 H          1 MOL1         0.0832
       3    H2      20.224661   20.493195   20.679475 H          1 MOL1         0.0832
       4    C2      20.696596   21.138841   22.721182 C.3        1 MOL1        -0.1685
       5    H3      21.530432   21.844565   22.839342 H          1 MOL1         0.0832
       6    H4      19.811680   21.769990   22.564249 H          1 MOL1         0.0832
       7    C3      20.547316   20.357334   24.051488 C.3        1 MOL1        -0.1685
       8    H5      20.551366   21.079095   24.879599 H          1 MOL1         0.0832
       9    H6      21.438101   19.739535   24.220001 H          1 MOL1         0.0832
      10    C4      19.269475   19.483766   24.188715 C.3        1 MOL1        -0.1761
      11    H7      19.461544   18.711514   24.944676 H          1 MOL1         0.0832
      12    H8      18.467254   20.106116   24.607185 H          1 MOL1         0.0832
      13    C5      18.712134   18.797191   22.917438 C.3        1 MOL1         0.1218
      14    H9      17.966649   18.061780   23.252395 H          1 MOL1         0.0789
      15    C6      19.738546   18.032290   22.045918 C.3        1 MOL1        -0.1761
      16    H10     19.985886   17.088371   22.548492 H          1 MOL1         0.0832
      17    H11     19.231528   17.741661   21.116152 H          1 MOL1         0.0832
      18    C7      21.067296   18.748621   21.677006 C.3        1 MOL1        -0.1685
      19    H12     21.828551   18.530977   22.436406 H          1 MOL1         0.0832
      20    H13     21.454030   18.286900   20.758325 H          1 MOL1         0.0832
      21    O1      18.029397   19.752488   22.120870 O.3        1 MOL1        -0.5509
      22    H14     18.730388   20.378735   21.850022 H          1 MOL1         0.3779
@<TRIPOS>BOND
    1     1     2    1
    2     1     3    1
    3     1     4    1
    4     4     5    1
    5     4     6    1
    6     4     7    1
    7     7     8    1
    8     7     9    1
    9     7    10    1
   10    10    11    1
   11    10    12    1
   12    10    13    1
   13    13    14    1
   14    13    15    1
   15    15    16    1
   16    15    17    1
   17     1    18    1
   18    15    18    1
   19    18    19    1
   20    18    20    1
   21    13    21    1
   22    21    22    1
@<TRIPOS>SUBSTRUCTURE
       1 MOL1            1 RESIDUE      1      MOL     
@<SCITEGIC>MOL_PROPERTY
VConf Rank
SciTegic.value.IntegerValue
280

@<SCITEGIC>MOL_PROPERTY
Conf_Id
SciTegic.value.IntegerValue
98

@<SCITEGIC>MOL_PROPERTY
Delta U+W
SciTegic.value.DoubleValue
0.930

@<SCITEGIC>MOL_PROPERTY
U+W
SciTegic.value.DoubleValue
7.353

@<SCITEGIC>MOL_PROPERTY
Grad RMS
SciTegic.value.DoubleValue
0.000000

@<SCITEGIC>MOL_PROPERTY
U
SciTegic.value.DoubleValue
8.455

@<SCITEGIC>MOL_PROPERTY
W
SciTegic.value.DoubleValue
-1.102

@<SCITEGIC>MOL_PROPERTY
W(PB)
SciTegic.value.DoubleValue
-3.101

@<SCITEGIC>MOL_PROPERTY
W(SA)
SciTegic.value.DoubleValue
2.000

@<SCITEGIC>MOL_PROPERTY
Valence
SciTegic.value.DoubleValue
15.601

@<SCITEGIC>MOL_PROPERTY
Coulomb
SciTegic.value.DoubleValue
-10.573

@<SCITEGIC>MOL_PROPERTY
VdW
SciTegic.value.DoubleValue
3.427

@<SCITEGIC>MOL_PROPERTY
VdW6
SciTegic.value.DoubleValue
-11.360

@<SCITEGIC>MOL_PROPERTY
VdW12
SciTegic.value.DoubleValue
14.787

@<SCITEGIC>MOL_PROPERTY
Bond
SciTegic.value.DoubleValue
0.471

@<SCITEGIC>MOL_PROPERTY
Angle
SciTegic.value.DoubleValue
5.445

@<SCITEGIC>MOL_PROPERTY
Pdih
SciTegic.value.DoubleValue
9.685

@<SCITEGIC>MOL_PROPERTY
Idih
SciTegic.value.DoubleValue
0.000

@<SCITEGIC>MOL_PROPERTY
Tether
SciTegic.value.DoubleValue
0.000

@<TRIPOS>MOLECULE
guest-5_confgen4.mol2 : confsearch ligand conformer 281
          22          22           1
SMALL
USER_CHARGES
 
@<TRIPOS>ATOM
       1    C1      19.365445   17.952739   22.477958 C.3        1 MOL1        -0.1685
       2    H1      20.398966   17.583197   22.485272 H          1 MOL1         0.0832
       3    H2      18.740611   17.050991   22.421888 H          1 MOL1         0.0832
       4    C2      19.121630   18.801781   21.204442 C.3        1 MOL1        -0.1685
       5    H3      19.317881   18.158618   20.335706 H          1 MOL1         0.0832
       6    H4      18.058810   19.071869   21.140490 H          1 MOL1         0.0832
       7    C3      19.984400   20.086060   21.059871 C.3        1 MOL1        -0.1685
       8    H5      19.383909   20.972218   21.303075 H          1 MOL1         0.0832
       9    H6      20.246935   20.204740   19.999859 H          1 MOL1         0.0832
      10    C4      21.289185   20.099084   21.899560 C.3        1 MOL1        -0.1761
      11    H7      21.854724   19.180389   21.700084 H          1 MOL1         0.0832
      12    H8      21.929962   20.910377   21.528621 H          1 MOL1         0.0832
      13    C5      21.106953   20.263639   23.436955 C.3        1 MOL1         0.1218
      14    H9      21.747886   19.522130   23.935389 H          1 MOL1         0.0789
      15    C6      19.662660   20.089887   23.969954 C.3        1 MOL1        -0.1761
      16    H10     19.643946   20.348226   25.036710 H          1 MOL1         0.0832
      17    H11     19.001127   20.819856   23.488178 H          1 MOL1         0.0832
      18    C7      19.063955   18.669543   23.815095 C.3        1 MOL1        -0.1685
      19    H12     19.434290   18.036602   24.633051 H          1 MOL1         0.0832
      20    H13     17.975960   18.733381   23.952439 H          1 MOL1         0.0832
      21    O1      21.543478   21.567010   23.805527 O.3        1 MOL1        -0.5509
      22    H14     21.472542   21.623466   24.781211 H          1 MOL1         0.3779
@<TRIPOS>BOND
    1     1     2    1
    2     1     3    1
    3     1     4    1
    4     4     5    1
    5     4     6    1
    6     4     7    1
    7     7     8    1
    8     7     9    1
    9     7    10    1
   10    10    11    1
   11    10    12    1
   12    10    13    1
   13    13    14    1
   14    13    15    1
   15    15    16    1
   16    15    17    1
   17     1    18    1
   18    15    18    1
   19    18    19    1
   20    18    20    1
   21    13    21    1
   22    21    22    1
@<TRIPOS>SUBSTRUCTURE
       1 MOL1            1 RESIDUE      1      MOL     
@<SCITEGIC>MOL_PROPERTY
VConf Rank
SciTegic.value.IntegerValue
281

@<SCITEGIC>MOL_PROPERTY
Conf_Id
SciTegic.value.IntegerValue
141

@<SCITEGIC>MOL_PROPERTY
Delta U+W
SciTegic.value.DoubleValue
0.000

@<SCITEGIC>MOL_PROPERTY
U+W
SciTegic.value.DoubleValue
6.423

@<SCITEGIC>MOL_PROPERTY
Grad RMS
SciTegic.value.DoubleValue
0.000000

@<SCITEGIC>MOL_PROPERTY
U
SciTegic.value.DoubleValue
8.781

@<SCITEGIC>MOL_PROPERTY
W
SciTegic.value.DoubleValue
-2.358

@<SCITEGIC>MOL_PROPERTY
W(PB)
SciTegic.value.DoubleValue
-4.373

@<SCITEGIC>MOL_PROPERTY
W(SA)
SciTegic.value.DoubleValue
2.015

@<SCITEGIC>MOL_PROPERTY
Valence
SciTegic.value.DoubleValue
13.328

@<SCITEGIC>MOL_PROPERTY
Coulomb
SciTegic.value.DoubleValue
-8.387

@<SCITEGIC>MOL_PROPERTY
VdW
SciTegic.value.DoubleValue
3.840

@<SCITEGIC>MOL_PROPERTY
VdW6
SciTegic.value.DoubleValue
-9.744

@<SCITEGIC>MOL_PROPERTY
VdW12
SciTegic.value.DoubleValue
13.584

@<SCITEGIC>MOL_PROPERTY
Bond
SciTegic.value.DoubleValue
0.436

@<SCITEGIC>MOL_PROPERTY
Angle
SciTegic.value.DoubleValue
3.478

@<SCITEGIC>MOL_PROPERTY
Pdih
SciTegic.value.DoubleValue
9.415

@<SCITEGIC>MOL_PROPERTY
Idih
SciTegic.value.DoubleValue
0.000

@<SCITEGIC>MOL_PROPERTY
Tether
SciTegic.value.DoubleValue
0.000

@<TRIPOS>MOLECULE
guest-5_confgen4.mol2 : confsearch ligand conformer 282
          22          22           1
SMALL
USER_CHARGES
 
@<TRIPOS>ATOM
       1    C1      19.626106   17.901207   22.567149 C.3        1 MOL1        -0.1685
       2    H1      18.822510   18.054363   23.300215 H          1 MOL1         0.0832
       3    H2      19.580538   16.840780   22.283736 H          1 MOL1         0.0832
       4    C2      21.013061   18.157757   23.204481 C.3        1 MOL1        -0.1685
       5    H3      21.213660   17.364159   23.937159 H          1 MOL1         0.0832
       6    H4      21.791282   18.057609   22.435572 H          1 MOL1         0.0832
       7    C3      21.169700   19.521488   23.915840 C.3        1 MOL1        -0.1685
       8    H5      22.208271   19.609322   24.262945 H          1 MOL1         0.0832
       9    H6      20.548913   19.533673   24.822170 H          1 MOL1         0.0832
      10    C4      20.833883   20.756251   23.044193 C.3        1 MOL1        -0.1761
      11    H7      21.200649   21.645677   23.573237 H          1 MOL1         0.0832
      12    H8      21.380938   20.719288   22.093213 H          1 MOL1         0.0832
      13    C5      19.317698   20.912935   22.790694 C.3        1 MOL1         0.1218
      14    H9      18.780621   20.539855   23.674551 H          1 MOL1         0.0789
      15    C6      18.792847   20.156346   21.549162 C.3        1 MOL1        -0.1761
      16    H10     17.703307   20.069571   21.650267 H          1 MOL1         0.0832
      17    H11     18.963973   20.766792   20.652401 H          1 MOL1         0.0832
      18    C7      19.382664   18.746526   21.295058 C.3        1 MOL1        -0.1685
      19    H12     18.693552   18.204586   20.633054 H          1 MOL1         0.0832
      20    H13     20.321299   18.837023   20.731600 H          1 MOL1         0.0832
      21    O1      19.021284   22.293979   22.623136 O.3        1 MOL1        -0.5509
      22    H14     19.292301   22.743325   23.450939 H          1 MOL1         0.3779
@<TRIPOS>BOND
    1     1     2    1
    2     1     3    1
    3     1     4    1
    4     4     5    1
    5     4     6    1
    6     4     7    1
    7     7     8    1
    8     7     9    1
    9     7    10    1
   10    10    11    1
   11    10    12    1
   12    10    13    1
   13    13    14    1
   14    13    15    1
   15    15    16    1
   16    15    17    1
   17     1    18    1
   18    15    18    1
   19    18    19    1
   20    18    20    1
   21    13    21    1
   22    21    22    1
@<TRIPOS>SUBSTRUCTURE
       1 MOL1            1 RESIDUE      1      MOL     
@<SCITEGIC>MOL_PROPERTY
VConf Rank
SciTegic.value.IntegerValue
282

@<SCITEGIC>MOL_PROPERTY
Conf_Id
SciTegic.value.IntegerValue
144

@<SCITEGIC>MOL_PROPERTY
Delta U+W
SciTegic.value.DoubleValue
-3.291

@<SCITEGIC>MOL_PROPERTY
U+W
SciTegic.value.DoubleValue
3.132

@<SCITEGIC>MOL_PROPERTY
Grad RMS
SciTegic.value.DoubleValue
0.000000

@<SCITEGIC>MOL_PROPERTY
U
SciTegic.value.DoubleValue
5.411

@<SCITEGIC>MOL_PROPERTY
W
SciTegic.value.DoubleValue
-2.279

@<SCITEGIC>MOL_PROPERTY
W(PB)
SciTegic.value.DoubleValue
-4.300

@<SCITEGIC>MOL_PROPERTY
W(SA)
SciTegic.value.DoubleValue
2.021

@<SCITEGIC>MOL_PROPERTY
Valence
SciTegic.value.DoubleValue
11.909

@<SCITEGIC>MOL_PROPERTY
Coulomb
SciTegic.value.DoubleValue
-8.733

@<SCITEGIC>MOL_PROPERTY
VdW
SciTegic.value.DoubleValue
2.236

@<SCITEGIC>MOL_PROPERTY
VdW6
SciTegic.value.DoubleValue
-8.936

@<SCITEGIC>MOL_PROPERTY
VdW12
SciTegic.value.DoubleValue
11.172

@<SCITEGIC>MOL_PROPERTY
Bond
SciTegic.value.DoubleValue
0.223

@<SCITEGIC>MOL_PROPERTY
Angle
SciTegic.value.DoubleValue
2.457

@<SCITEGIC>MOL_PROPERTY
Pdih
SciTegic.value.DoubleValue
9.228

@<SCITEGIC>MOL_PROPERTY
Idih
SciTegic.value.DoubleValue
0.000

@<SCITEGIC>MOL_PROPERTY
Tether
SciTegic.value.DoubleValue
0.000

@<TRIPOS>MOLECULE
guest-5_confgen4.mol2 : confsearch ligand conformer 283
          22          22           1
SMALL
USER_CHARGES
 
@<TRIPOS>ATOM
       1    C1      18.689730   18.629904   21.886337 C.3        1 MOL1        -0.1685
       2    H1      17.807321   18.009040   21.679520 H          1 MOL1         0.0832
       3    H2      19.133944   18.861894   20.908821 H          1 MOL1         0.0832
       4    C2      19.666137   17.800066   22.752405 C.3        1 MOL1        -0.1685
       5    H3      19.358964   17.856467   23.805608 H          1 MOL1         0.0832
       6    H4      19.573206   16.740659   22.476688 H          1 MOL1         0.0832
       7    C3      21.156785   18.196878   22.624214 C.3        1 MOL1        -0.1685
       8    H5      21.584912   17.698323   21.743836 H          1 MOL1         0.0832
       9    H6      21.695549   17.787781   23.489887 H          1 MOL1         0.0832
      10    C4      21.457015   19.712066   22.513737 C.3        1 MOL1        -0.1761
      11    H7      22.515931   19.863653   22.763114 H          1 MOL1         0.0832
      12    H8      21.349931   20.025369   21.467186 H          1 MOL1         0.0832
      13    C5      20.581691   20.616670   23.409893 C.3        1 MOL1         0.1218
      14    H9      20.355329   20.094757   24.350550 H          1 MOL1         0.0789
      15    C6      19.263998   21.037143   22.720064 C.3        1 MOL1        -0.1761
      16    H10     18.817779   21.864102   23.288534 H          1 MOL1         0.0832
      17    H11     19.484710   21.439114   21.722672 H          1 MOL1         0.0832
      18    C7      18.203195   19.918149   22.592523 C.3        1 MOL1        -0.1685
      19    H12     17.819784   19.664617   23.590341 H          1 MOL1         0.0832
      20    H13     17.345691   20.320163   22.035873 H          1 MOL1         0.0832
      21    O1      21.315630   21.797498   23.705172 O.3        1 MOL1        -0.5509
      22    H14     21.498841   22.231313   22.846453 H          1 MOL1         0.3779
@<TRIPOS>BOND
    1     1     2    1
    2     1     3    1
    3     1     4    1
    4     4     5    1
    5     4     6    1
    6     4     7    1
    7     7     8    1
    8     7     9    1
    9     7    10    1
   10    10    11    1
   11    10    12    1
   12    10    13    1
   13    13    14    1
   14    13    15    1
   15    15    16    1
   16    15    17    1
   17     1    18    1
   18    15    18    1
   19    18    19    1
   20    18    20    1
   21    13    21    1
   22    21    22    1
@<TRIPOS>SUBSTRUCTURE
       1 MOL1            1 RESIDUE      1      MOL     
@<SCITEGIC>MOL_PROPERTY
VConf Rank
SciTegic.value.IntegerValue
283

@<SCITEGIC>MOL_PROPERTY
Conf_Id
SciTegic.value.IntegerValue
76

@<SCITEGIC>MOL_PROPERTY
Delta U+W
SciTegic.value.DoubleValue
-3.175

@<SCITEGIC>MOL_PROPERTY
U+W
SciTegic.value.DoubleValue
3.248

@<SCITEGIC>MOL_PROPERTY
Grad RMS
SciTegic.value.DoubleValue
0.000000

@<SCITEGIC>MOL_PROPERTY
U
SciTegic.value.DoubleValue
5.336

@<SCITEGIC>MOL_PROPERTY
W
SciTegic.value.DoubleValue
-2.088

@<SCITEGIC>MOL_PROPERTY
W(PB)
SciTegic.value.DoubleValue
-4.098

@<SCITEGIC>MOL_PROPERTY
W(SA)
SciTegic.value.DoubleValue
2.010

@<SCITEGIC>MOL_PROPERTY
Valence
SciTegic.value.DoubleValue
12.390

@<SCITEGIC>MOL_PROPERTY
Coulomb
SciTegic.value.DoubleValue
-9.270

@<SCITEGIC>MOL_PROPERTY
VdW
SciTegic.value.DoubleValue
2.216

@<SCITEGIC>MOL_PROPERTY
VdW6
SciTegic.value.DoubleValue
-8.967

@<SCITEGIC>MOL_PROPERTY
VdW12
SciTegic.value.DoubleValue
11.183

@<SCITEGIC>MOL_PROPERTY
Bond
SciTegic.value.DoubleValue
0.218

@<SCITEGIC>MOL_PROPERTY
Angle
SciTegic.value.DoubleValue
2.426

@<SCITEGIC>MOL_PROPERTY
Pdih
SciTegic.value.DoubleValue
9.745

@<SCITEGIC>MOL_PROPERTY
Idih
SciTegic.value.DoubleValue
0.000

@<SCITEGIC>MOL_PROPERTY
Tether
SciTegic.value.DoubleValue
0.000

@<TRIPOS>MOLECULE
guest-5_confgen4.mol2 : confsearch ligand conformer 284
          22          22           1
SMALL
USER_CHARGES
 
@<TRIPOS>ATOM
       1    C1      19.262951   18.242717   23.754963 C.3        1 MOL1        -0.1685
       2    H1      18.195387   17.988151   23.802749 H          1 MOL1         0.0832
       3    H2      19.772424   17.513505   24.399558 H          1 MOL1         0.0832
       4    C2      19.450337   19.657634   24.352934 C.3        1 MOL1        -0.1685
       5    H3      18.591925   20.286922   24.081633 H          1 MOL1         0.0832
       6    H4      19.416311   19.570729   25.447499 H          1 MOL1         0.0832
       7    C3      20.760490   20.371575   23.946327 C.3        1 MOL1        -0.1685
       8    H5      21.594551   19.659168   23.885860 H          1 MOL1         0.0832
       9    H6      21.023225   21.081405   24.742193 H          1 MOL1         0.0832
      10    C4      20.622807   21.172268   22.626473 C.3        1 MOL1        -0.1761
      11    H7      19.740492   21.821977   22.689025 H          1 MOL1         0.0832
      12    H8      21.481990   21.849873   22.536650 H          1 MOL1         0.0832
      13    C5      20.535901   20.338669   21.327760 C.3        1 MOL1         0.1218
      14    H9      20.261299   21.034747   20.522052 H          1 MOL1         0.0789
      15    C6      19.473157   19.211302   21.337995 C.3        1 MOL1        -0.1761
      16    H10     18.483391   19.634983   21.551856 H          1 MOL1         0.0832
      17    H11     19.408478   18.808078   20.319164 H          1 MOL1         0.0832
      18    C7      19.767738   18.036689   22.306872 C.3        1 MOL1        -0.1685
      19    H12     19.296878   17.126241   21.912160 H          1 MOL1         0.0832
      20    H13     20.844551   17.823066   22.323569 H          1 MOL1         0.0832
      21    O1      21.819454   19.798871   21.029204 O.3        1 MOL1        -0.5509
      22    H14     21.708483   19.239238   20.233730 H          1 MOL1         0.3779
@<TRIPOS>BOND
    1     1     2    1
    2     1     3    1
    3     1     4    1
    4     4     5    1
    5     4     6    1
    6     4     7    1
    7     7     8    1
    8     7     9    1
    9     7    10    1
   10    10    11    1
   11    10    12    1
   12    10    13    1
   13    13    14    1
   14    13    15    1
   15    15    16    1
   16    15    17    1
   17     1    18    1
   18    15    18    1
   19    18    19    1
   20    18    20    1
   21    13    21    1
   22    21    22    1
@<TRIPOS>SUBSTRUCTURE
       1 MOL1            1 RESIDUE      1      MOL     
@<SCITEGIC>MOL_PROPERTY
VConf Rank
SciTegic.value.IntegerValue
284

@<SCITEGIC>MOL_PROPERTY
Conf_Id
SciTegic.value.IntegerValue
95

@<SCITEGIC>MOL_PROPERTY
Delta U+W
SciTegic.value.DoubleValue
-2.289

@<SCITEGIC>MOL_PROPERTY
U+W
SciTegic.value.DoubleValue
4.134

@<SCITEGIC>MOL_PROPERTY
Grad RMS
SciTegic.value.DoubleValue
0.000000

@<SCITEGIC>MOL_PROPERTY
U
SciTegic.value.DoubleValue
6.373

@<SCITEGIC>MOL_PROPERTY
W
SciTegic.value.DoubleValue
-2.240

@<SCITEGIC>MOL_PROPERTY
W(PB)
SciTegic.value.DoubleValue
-4.254

@<SCITEGIC>MOL_PROPERTY
W(SA)
SciTegic.value.DoubleValue
2.015

@<SCITEGIC>MOL_PROPERTY
Valence
SciTegic.value.DoubleValue
12.093

@<SCITEGIC>MOL_PROPERTY
Coulomb
SciTegic.value.DoubleValue
-8.058

@<SCITEGIC>MOL_PROPERTY
VdW
SciTegic.value.DoubleValue
2.339

@<SCITEGIC>MOL_PROPERTY
VdW6
SciTegic.value.DoubleValue
-9.683

@<SCITEGIC>MOL_PROPERTY
VdW12
SciTegic.value.DoubleValue
12.022

@<SCITEGIC>MOL_PROPERTY
Bond
SciTegic.value.DoubleValue
0.268

@<SCITEGIC>MOL_PROPERTY
Angle
SciTegic.value.DoubleValue
3.005

@<SCITEGIC>MOL_PROPERTY
Pdih
SciTegic.value.DoubleValue
8.820

@<SCITEGIC>MOL_PROPERTY
Idih
SciTegic.value.DoubleValue
0.000

@<SCITEGIC>MOL_PROPERTY
Tether
SciTegic.value.DoubleValue
0.000

@<TRIPOS>MOLECULE
guest-5_confgen4.mol2 : confsearch ligand conformer 285
          22          22           1
SMALL
USER_CHARGES
 
@<TRIPOS>ATOM
       1    C1      21.174490   21.094190   23.185728 C.3        1 MOL1        -0.1685
       2    H1      21.090219   21.754913   24.059282 H          1 MOL1         0.0832
       3    H2      22.076080   21.421706   22.650323 H          1 MOL1         0.0832
       4    C2      19.941486   21.328781   22.280743 C.3        1 MOL1        -0.1685
       5    H3      19.059383   21.520291   22.906600 H          1 MOL1         0.0832
       6    H4      20.106981   22.256125   21.715550 H          1 MOL1         0.0832
       7    C3      19.629894   20.184621   21.288108 C.3        1 MOL1        -0.1685
       8    H5      20.555318   19.746209   20.890357 H          1 MOL1         0.0832
       9    H6      19.101959   20.615745   20.426805 H          1 MOL1         0.0832
      10    C4      18.718316   19.092373   21.902379 C.3        1 MOL1        -0.1761
      11    H7      17.846225   19.571576   22.365754 H          1 MOL1         0.0832
      12    H8      18.313621   18.475209   21.089782 H          1 MOL1         0.0832
      13    C5      19.379062   18.157549   22.941251 C.3        1 MOL1         0.1218
      14    H9      18.570409   17.569991   23.399462 H          1 MOL1         0.0789
      15    C6      20.126095   18.876909   24.092250 C.3        1 MOL1        -0.1761
      16    H10     19.439892   19.551131   24.620490 H          1 MOL1         0.0832
      17    H11     20.413153   18.109093   24.822240 H          1 MOL1         0.0832
      18    C7      21.406805   19.643029   23.670013 C.3        1 MOL1        -0.1685
      19    H12     22.094307   19.679012   24.525736 H          1 MOL1         0.0832
      20    H13     21.940152   19.078989   22.893469 H          1 MOL1         0.0832
      21    O1      20.258563   17.257183   22.274385 O.3        1 MOL1        -0.5509
      22    H14     19.743926   16.845190   21.550786 H          1 MOL1         0.3779
@<TRIPOS>BOND
    1     1     2    1
    2     1     3    1
    3     1     4    1
    4     4     5    1
    5     4     6    1
    6     4     7    1
    7     7     8    1
    8     7     9    1
    9     7    10    1
   10    10    11    1
   11    10    12    1
   12    10    13    1
   13    13    14    1
   14    13    15    1
   15    15    16    1
   16    15    17    1
   17     1    18    1
   18    15    18    1
   19    18    19    1
   20    18    20    1
   21    13    21    1
   22    21    22    1
@<TRIPOS>SUBSTRUCTURE
       1 MOL1            1 RESIDUE      1      MOL     
@<SCITEGIC>MOL_PROPERTY
VConf Rank
SciTegic.value.IntegerValue
285

@<SCITEGIC>MOL_PROPERTY
Conf_Id
SciTegic.value.IntegerValue
41

@<SCITEGIC>MOL_PROPERTY
Delta U+W
SciTegic.value.DoubleValue
-2.114

@<SCITEGIC>MOL_PROPERTY
U+W
SciTegic.value.DoubleValue
4.310

@<SCITEGIC>MOL_PROPERTY
Grad RMS
SciTegic.value.DoubleValue
0.000000

@<SCITEGIC>MOL_PROPERTY
U
SciTegic.value.DoubleValue
6.598

@<SCITEGIC>MOL_PROPERTY
W
SciTegic.value.DoubleValue
-2.289

@<SCITEGIC>MOL_PROPERTY
W(PB)
SciTegic.value.DoubleValue
-4.294

@<SCITEGIC>MOL_PROPERTY
W(SA)
SciTegic.value.DoubleValue
2.005

@<SCITEGIC>MOL_PROPERTY
Valence
SciTegic.value.DoubleValue
12.082

@<SCITEGIC>MOL_PROPERTY
Coulomb
SciTegic.value.DoubleValue
-7.801

@<SCITEGIC>MOL_PROPERTY
VdW
SciTegic.value.DoubleValue
2.317

@<SCITEGIC>MOL_PROPERTY
VdW6
SciTegic.value.DoubleValue
-9.658

@<SCITEGIC>MOL_PROPERTY
VdW12
SciTegic.value.DoubleValue
11.975

@<SCITEGIC>MOL_PROPERTY
Bond
SciTegic.value.DoubleValue
0.267

@<SCITEGIC>MOL_PROPERTY
Angle
SciTegic.value.DoubleValue
3.051

@<SCITEGIC>MOL_PROPERTY
Pdih
SciTegic.value.DoubleValue
8.764

@<SCITEGIC>MOL_PROPERTY
Idih
SciTegic.value.DoubleValue
0.000

@<SCITEGIC>MOL_PROPERTY
Tether
SciTegic.value.DoubleValue
0.000

@<TRIPOS>MOLECULE
guest-5_confgen4.mol2 : confsearch ligand conformer 286
          22          22           1
SMALL
USER_CHARGES
 
@<TRIPOS>ATOM
       1    C1      19.251770   20.801797   22.019464 C.3        1 MOL1        -0.1685
       2    H1      18.792561   21.767309   21.767546 H          1 MOL1         0.0832
       3    H2      19.267554   20.216362   21.089844 H          1 MOL1         0.0832
       4    C2      18.362702   20.116960   23.081511 C.3        1 MOL1        -0.1685
       5    H3      18.410049   20.683687   24.021277 H          1 MOL1         0.0832
       6    H4      17.316716   20.169892   22.750344 H          1 MOL1         0.0832
       7    C3      18.709153   18.636844   23.354367 C.3        1 MOL1        -0.1685
       8    H5      18.458380   18.034085   22.471370 H          1 MOL1         0.0832
       9    H6      18.047913   18.276426   24.153733 H          1 MOL1         0.0832
      10    C4      20.178804   18.370633   23.779152 C.3        1 MOL1        -0.1761
      11    H7      20.455049   19.028645   24.612799 H          1 MOL1         0.0832
      12    H8      20.229267   17.349539   24.178406 H          1 MOL1         0.0832
      13    C5      21.240118   18.473652   22.653526 C.3        1 MOL1         0.1218
      14    H9      22.140516   17.960454   23.021208 H          1 MOL1         0.0789
      15    C6      21.687012   19.909416   22.274046 C.3        1 MOL1        -0.1761
      16    H10     22.603221   20.138015   22.833839 H          1 MOL1         0.0832
      17    H11     21.984053   19.924033   21.217153 H          1 MOL1         0.0832
      18    C7      20.687703   21.066117   22.523694 C.3        1 MOL1        -0.1685
      19    H12     20.666105   21.316158   23.593006 H          1 MOL1         0.0832
      20    H13     21.077589   21.961101   22.020036 H          1 MOL1         0.0832
      21    O1      20.797731   17.784957   21.486945 O.3        1 MOL1        -0.5509
      22    H14     21.519923   17.849549   20.829544 H          1 MOL1         0.3779
@<TRIPOS>BOND
    1     1     2    1
    2     1     3    1
    3     1     4    1
    4     4     5    1
    5     4     6    1
    6     4     7    1
    7     7     8    1
    8     7     9    1
    9     7    10    1
   10    10    11    1
   11    10    12    1
   12    10    13    1
   13    13    14    1
   14    13    15    1
   15    15    16    1
   16    15    17    1
   17     1    18    1
   18    15    18    1
   19    18    19    1
   20    18    20    1
   21    13    21    1
   22    21    22    1
@<TRIPOS>SUBSTRUCTURE
       1 MOL1            1 RESIDUE      1      MOL     
@<SCITEGIC>MOL_PROPERTY
VConf Rank
SciTegic.value.IntegerValue
286

@<SCITEGIC>MOL_PROPERTY
Conf_Id
SciTegic.value.IntegerValue
104

@<SCITEGIC>MOL_PROPERTY
Delta U+W
SciTegic.value.DoubleValue
-1.172

@<SCITEGIC>MOL_PROPERTY
U+W
SciTegic.value.DoubleValue
5.252

@<SCITEGIC>MOL_PROPERTY
Grad RMS
SciTegic.value.DoubleValue
0.000000

@<SCITEGIC>MOL_PROPERTY
U
SciTegic.value.DoubleValue
7.482

@<SCITEGIC>MOL_PROPERTY
W
SciTegic.value.DoubleValue
-2.230

@<SCITEGIC>MOL_PROPERTY
W(PB)
SciTegic.value.DoubleValue
-4.220

@<SCITEGIC>MOL_PROPERTY
W(SA)
SciTegic.value.DoubleValue
1.990

@<SCITEGIC>MOL_PROPERTY
Valence
SciTegic.value.DoubleValue
12.309

@<SCITEGIC>MOL_PROPERTY
Coulomb
SciTegic.value.DoubleValue
-7.084

@<SCITEGIC>MOL_PROPERTY
VdW
SciTegic.value.DoubleValue
2.258

@<SCITEGIC>MOL_PROPERTY
VdW6
SciTegic.value.DoubleValue
-9.770

@<SCITEGIC>MOL_PROPERTY
VdW12
SciTegic.value.DoubleValue
12.028

@<SCITEGIC>MOL_PROPERTY
Bond
SciTegic.value.DoubleValue
0.284

@<SCITEGIC>MOL_PROPERTY
Angle
SciTegic.value.DoubleValue
3.491

@<SCITEGIC>MOL_PROPERTY
Pdih
SciTegic.value.DoubleValue
8.535

@<SCITEGIC>MOL_PROPERTY
Idih
SciTegic.value.DoubleValue
0.000

@<SCITEGIC>MOL_PROPERTY
Tether
SciTegic.value.DoubleValue
0.000

@<TRIPOS>MOLECULE
guest-5_confgen4.mol2 : confsearch ligand conformer 287
          22          22           1
SMALL
USER_CHARGES
 
@<TRIPOS>ATOM
       1    C1      21.309115   18.713844   22.043144 C.3        1 MOL1        -0.1685
       2    H1      21.489975   18.177919   22.984717 H          1 MOL1         0.0832
       3    H2      22.066705   18.347731   21.336775 H          1 MOL1         0.0832
       4    C2      21.525476   20.233865   22.222609 C.3        1 MOL1        -0.1685
       5    H3      22.604440   20.439707   22.195851 H          1 MOL1         0.0832
       6    H4      21.113597   20.764805   21.354395 H          1 MOL1         0.0832
       7    C3      20.961340   20.842527   23.531408 C.3        1 MOL1        -0.1685
       8    H5      20.760977   21.909316   23.360733 H          1 MOL1         0.0832
       9    H6      21.749532   20.813151   24.296142 H          1 MOL1         0.0832
      10    C4      19.696184   20.177247   24.138026 C.3        1 MOL1        -0.1761
      11    H7      19.991966   19.266363   24.674457 H          1 MOL1         0.0832
      12    H8      19.297208   20.848601   24.909456 H          1 MOL1         0.0832
      13    C5      18.547641   19.828727   23.163673 C.3        1 MOL1         0.1218
      14    H9      17.626049   19.752625   23.758447 H          1 MOL1         0.0789
      15    C6      18.744396   18.462868   22.467983 C.3        1 MOL1        -0.1761
      16    H10     18.867734   17.690520   23.238262 H          1 MOL1         0.0832
      17    H11     17.814599   18.209729   21.942016 H          1 MOL1         0.0832
      18    C7      19.918625   18.361482   21.463146 C.3        1 MOL1        -0.1685
      19    H12     19.952648   17.329304   21.088764 H          1 MOL1         0.0832
      20    H13     19.711925   18.987246   20.584412 H          1 MOL1         0.0832
      21    O1      18.387926   20.853032   22.194415 O.3        1 MOL1        -0.5509
      22    H14     19.265650   20.916910   21.768028 H          1 MOL1         0.3779
@<TRIPOS>BOND
    1     1     2    1
    2     1     3    1
    3     1     4    1
    4     4     5    1
    5     4     6    1
    6     4     7    1
    7     7     8    1
    8     7     9    1
    9     7    10    1
   10    10    11    1
   11    10    12    1
   12    10    13    1
   13    13    14    1
   14    13    15    1
   15    15    16    1
   16    15    17    1
   17     1    18    1
   18    15    18    1
   19    18    19    1
   20    18    20    1
   21    13    21    1
   22    21    22    1
@<TRIPOS>SUBSTRUCTURE
       1 MOL1            1 RESIDUE      1      MOL     
@<SCITEGIC>MOL_PROPERTY
VConf Rank
SciTegic.value.IntegerValue
287

@<SCITEGIC>MOL_PROPERTY
Conf_Id
SciTegic.value.IntegerValue
99

@<SCITEGIC>MOL_PROPERTY
Delta U+W
SciTegic.value.DoubleValue
-3.852

@<SCITEGIC>MOL_PROPERTY
U+W
SciTegic.value.DoubleValue
2.572

@<SCITEGIC>MOL_PROPERTY
Grad RMS
SciTegic.value.DoubleValue
0.000000

@<SCITEGIC>MOL_PROPERTY
U
SciTegic.value.DoubleValue
3.922

@<SCITEGIC>MOL_PROPERTY
W
SciTegic.value.DoubleValue
-1.350

@<SCITEGIC>MOL_PROPERTY
W(PB)
SciTegic.value.DoubleValue
-3.345

@<SCITEGIC>MOL_PROPERTY
W(SA)
SciTegic.value.DoubleValue
1.995

@<SCITEGIC>MOL_PROPERTY
Valence
SciTegic.value.DoubleValue
12.571

@<SCITEGIC>MOL_PROPERTY
Coulomb
SciTegic.value.DoubleValue
-10.581

@<SCITEGIC>MOL_PROPERTY
VdW
SciTegic.value.DoubleValue
1.932

@<SCITEGIC>MOL_PROPERTY
VdW6
SciTegic.value.DoubleValue
-10.483

@<SCITEGIC>MOL_PROPERTY
VdW12
SciTegic.value.DoubleValue
12.415

@<SCITEGIC>MOL_PROPERTY
Bond
SciTegic.value.DoubleValue
0.268

@<SCITEGIC>MOL_PROPERTY
Angle
SciTegic.value.DoubleValue
3.728

@<SCITEGIC>MOL_PROPERTY
Pdih
SciTegic.value.DoubleValue
8.575

@<SCITEGIC>MOL_PROPERTY
Idih
SciTegic.value.DoubleValue
0.000

@<SCITEGIC>MOL_PROPERTY
Tether
SciTegic.value.DoubleValue
0.000

@<TRIPOS>MOLECULE
guest-5_confgen4.mol2 : confsearch ligand conformer 288
          22          22           1
SMALL
USER_CHARGES
 
@<TRIPOS>ATOM
       1    C1      19.756217   18.219946   23.568164 C.3        1 MOL1        -0.1685
       2    H1      19.584205   17.702826   24.522255 H          1 MOL1         0.0832
       3    H2      19.654305   17.440451   22.801316 H          1 MOL1         0.0832
       4    C2      21.211407   18.773226   23.580603 C.3        1 MOL1        -0.1685
       5    H3      21.669299   18.495441   24.540010 H          1 MOL1         0.0832
       6    H4      21.816837   18.262794   22.819704 H          1 MOL1         0.0832
       7    C3      21.355845   20.307672   23.415185 C.3        1 MOL1        -0.1685
       8    H5      22.396252   20.583371   23.634886 H          1 MOL1         0.0832
       9    H6      20.766362   20.820282   24.185452 H          1 MOL1         0.0832
      10    C4      20.998535   20.878534   22.014729 C.3        1 MOL1        -0.1761
      11    H7      20.758826   21.943484   22.129456 H          1 MOL1         0.0832
      12    H8      21.900075   20.850015   21.388304 H          1 MOL1         0.0832
      13    C5      19.855647   20.202009   21.218312 C.3        1 MOL1         0.1218
      14    H9      19.607774   20.872786   20.383212 H          1 MOL1         0.0789
      15    C6      18.540138   19.943537   21.993408 C.3        1 MOL1        -0.1761
      16    H10     18.009741   20.897935   22.105415 H          1 MOL1         0.0832
      17    H11     17.895081   19.326567   21.353685 H          1 MOL1         0.0832
      18    C7      18.631358   19.271756   23.391689 C.3        1 MOL1        -0.1685
      19    H12     18.719751   20.042246   24.167640 H          1 MOL1         0.0832
      20    H13     17.667434   18.785402   23.594256 H          1 MOL1         0.0832
      21    O1      20.322788   18.986559   20.654660 O.3        1 MOL1        -0.5509
      22    H14     20.527995   18.429062   21.431847 H          1 MOL1         0.3779
@<TRIPOS>BOND
    1     1     2    1
    2     1     3    1
    3     1     4    1
    4     4     5    1
    5     4     6    1
    6     4     7    1
    7     7     8    1
    8     7     9    1
    9     7    10    1
   10    10    11    1
   11    10    12    1
   12    10    13    1
   13    13    14    1
   14    13    15    1
   15    15    16    1
   16    15    17    1
   17     1    18    1
   18    15    18    1
   19    18    19    1
   20    18    20    1
   21    13    21    1
   22    21    22    1
@<TRIPOS>SUBSTRUCTURE
       1 MOL1            1 RESIDUE      1      MOL     
@<SCITEGIC>MOL_PROPERTY
VConf Rank
SciTegic.value.IntegerValue
288

@<SCITEGIC>MOL_PROPERTY
Conf_Id
SciTegic.value.IntegerValue
98

@<SCITEGIC>MOL_PROPERTY
Delta U+W
SciTegic.value.DoubleValue
0.930

@<SCITEGIC>MOL_PROPERTY
U+W
SciTegic.value.DoubleValue
7.353

@<SCITEGIC>MOL_PROPERTY
Grad RMS
SciTegic.value.DoubleValue
0.000000

@<SCITEGIC>MOL_PROPERTY
U
SciTegic.value.DoubleValue
8.455

@<SCITEGIC>MOL_PROPERTY
W
SciTegic.value.DoubleValue
-1.102

@<SCITEGIC>MOL_PROPERTY
W(PB)
SciTegic.value.DoubleValue
-3.101

@<SCITEGIC>MOL_PROPERTY
W(SA)
SciTegic.value.DoubleValue
2.000

@<SCITEGIC>MOL_PROPERTY
Valence
SciTegic.value.DoubleValue
15.601

@<SCITEGIC>MOL_PROPERTY
Coulomb
SciTegic.value.DoubleValue
-10.573

@<SCITEGIC>MOL_PROPERTY
VdW
SciTegic.value.DoubleValue
3.427

@<SCITEGIC>MOL_PROPERTY
VdW6
SciTegic.value.DoubleValue
-11.360

@<SCITEGIC>MOL_PROPERTY
VdW12
SciTegic.value.DoubleValue
14.787

@<SCITEGIC>MOL_PROPERTY
Bond
SciTegic.value.DoubleValue
0.471

@<SCITEGIC>MOL_PROPERTY
Angle
SciTegic.value.DoubleValue
5.445

@<SCITEGIC>MOL_PROPERTY
Pdih
SciTegic.value.DoubleValue
9.685

@<SCITEGIC>MOL_PROPERTY
Idih
SciTegic.value.DoubleValue
0.000

@<SCITEGIC>MOL_PROPERTY
Tether
SciTegic.value.DoubleValue
0.000

@<TRIPOS>MOLECULE
guest-5_confgen4.mol2 : confsearch ligand conformer 289
          22          22           1
SMALL
USER_CHARGES
 
@<TRIPOS>ATOM
       1    C1      20.396025   20.395602   24.092794 C.3        1 MOL1        -0.1685
       2    H1      19.388827   20.143157   24.448609 H          1 MOL1         0.0832
       3    H2      20.865983   20.935116   24.926326 H          1 MOL1         0.0832
       4    C2      20.297842   21.353311   22.878170 C.3        1 MOL1        -0.1685
       5    H3      19.758231   22.251539   23.208144 H          1 MOL1         0.0832
       6    H4      21.303111   21.696332   22.598183 H          1 MOL1         0.0832
       7    C3      19.580139   20.793567   21.618711 C.3        1 MOL1        -0.1685
       8    H5      20.319529   20.517036   20.855921 H          1 MOL1         0.0832
       9    H6      18.998011   21.607732   21.166055 H          1 MOL1         0.0832
      10    C4      18.633766   19.592240   21.881196 C.3        1 MOL1        -0.1761
      11    H7      17.938023   19.851917   22.688745 H          1 MOL1         0.0832
      12    H8      17.998574   19.453714   20.995911 H          1 MOL1         0.0832
      13    C5      19.328309   18.240597   22.219636 C.3        1 MOL1         0.1218
      14    H9      18.810637   17.800859   23.084341 H          1 MOL1         0.0789
      15    C6      20.839702   18.320304   22.550691 C.3        1 MOL1        -0.1761
      16    H10     21.236192   17.301429   22.649414 H          1 MOL1         0.0832
      17    H11     21.380928   18.755885   21.702202 H          1 MOL1         0.0832
      18    C7      21.196432   19.095662   23.843506 C.3        1 MOL1        -0.1685
      19    H12     21.049490   18.433072   24.707332 H          1 MOL1         0.0832
      20    H13     22.269181   19.331208   23.823498 H          1 MOL1         0.0832
      21    O1      19.181344   17.367134   21.105795 O.3        1 MOL1        -0.5509
      22    H14     19.574978   16.508390   21.366160 H          1 MOL1         0.3779
@<TRIPOS>BOND
    1     1     2    1
    2     1     3    1
    3     1     4    1
    4     4     5    1
    5     4     6    1
    6     4     7    1
    7     7     8    1
    8     7     9    1
    9     7    10    1
   10    10    11    1
   11    10    12    1
   12    10    13    1
   13    13    14    1
   14    13    15    1
   15    15    16    1
   16    15    17    1
   17     1    18    1
   18    15    18    1
   19    18    19    1
   20    18    20    1
   21    13    21    1
   22    21    22    1
@<TRIPOS>SUBSTRUCTURE
       1 MOL1            1 RESIDUE      1      MOL     
@<SCITEGIC>MOL_PROPERTY
VConf Rank
SciTegic.value.IntegerValue
289

@<SCITEGIC>MOL_PROPERTY
Conf_Id
SciTegic.value.IntegerValue
141

@<SCITEGIC>MOL_PROPERTY
Delta U+W
SciTegic.value.DoubleValue
0.000

@<SCITEGIC>MOL_PROPERTY
U+W
SciTegic.value.DoubleValue
6.423

@<SCITEGIC>MOL_PROPERTY
Grad RMS
SciTegic.value.DoubleValue
0.000000

@<SCITEGIC>MOL_PROPERTY
U
SciTegic.value.DoubleValue
8.781

@<SCITEGIC>MOL_PROPERTY
W
SciTegic.value.DoubleValue
-2.358

@<SCITEGIC>MOL_PROPERTY
W(PB)
SciTegic.value.DoubleValue
-4.373

@<SCITEGIC>MOL_PROPERTY
W(SA)
SciTegic.value.DoubleValue
2.015

@<SCITEGIC>MOL_PROPERTY
Valence
SciTegic.value.DoubleValue
13.328

@<SCITEGIC>MOL_PROPERTY
Coulomb
SciTegic.value.DoubleValue
-8.387

@<SCITEGIC>MOL_PROPERTY
VdW
SciTegic.value.DoubleValue
3.840

@<SCITEGIC>MOL_PROPERTY
VdW6
SciTegic.value.DoubleValue
-9.744

@<SCITEGIC>MOL_PROPERTY
VdW12
SciTegic.value.DoubleValue
13.584

@<SCITEGIC>MOL_PROPERTY
Bond
SciTegic.value.DoubleValue
0.436

@<SCITEGIC>MOL_PROPERTY
Angle
SciTegic.value.DoubleValue
3.478

@<SCITEGIC>MOL_PROPERTY
Pdih
SciTegic.value.DoubleValue
9.415

@<SCITEGIC>MOL_PROPERTY
Idih
SciTegic.value.DoubleValue
0.000

@<SCITEGIC>MOL_PROPERTY
Tether
SciTegic.value.DoubleValue
0.000

@<TRIPOS>MOLECULE
guest-5_confgen4.mol2 : confsearch ligand conformer 290
          22          22           1
SMALL
USER_CHARGES
 
@<TRIPOS>ATOM
       1    C1      18.738197   20.243153   23.710004 C.3        1 MOL1        -0.1685
       2    H1      18.156957   19.328101   23.532669 H          1 MOL1         0.0832
       3    H2      18.159588   20.835246   24.432183 H          1 MOL1         0.0832
       4    C2      18.865451   21.078178   22.413010 C.3        1 MOL1        -0.1685
       5    H3      17.875314   21.478895   22.156282 H          1 MOL1         0.0832
       6    H4      19.501124   21.953495   22.604367 H          1 MOL1         0.0832
       7    C3      19.408104   20.310817   21.185404 C.3        1 MOL1        -0.1685
       8    H5      19.514614   21.023204   20.355954 H          1 MOL1         0.0832
       9    H6      18.661221   19.575961   20.855085 H          1 MOL1         0.0832
      10    C4      20.766818   19.601833   21.405449 C.3        1 MOL1        -0.1761
      11    H7      21.147276   19.300423   20.420620 H          1 MOL1         0.0832
      12    H8      21.506083   20.300831   21.817622 H          1 MOL1         0.0832
      13    C5      20.647663   18.349091   22.302147 C.3        1 MOL1         0.1218
      14    H9      19.664076   17.890997   22.124521 H          1 MOL1         0.0789
      15    C6      20.786517   18.627797   23.816194 C.3        1 MOL1        -0.1761
      16    H10     20.374036   17.762777   24.351405 H          1 MOL1         0.0832
      17    H11     21.851291   18.666381   24.082423 H          1 MOL1         0.0832
      18    C7      20.106930   19.913478   24.350261 C.3        1 MOL1        -0.1685
      19    H12     19.975757   19.802398   25.435287 H          1 MOL1         0.0832
      20    H13     20.785272   20.767972   24.222191 H          1 MOL1         0.0832
      21    O1      21.659539   17.421210   21.930177 O.3        1 MOL1        -0.5509
      22    H14     21.507230   17.200270   20.987518 H          1 MOL1         0.3779
@<TRIPOS>BOND
    1     1     2    1
    2     1     3    1
    3     1     4    1
    4     4     5    1
    5     4     6    1
    6     4     7    1
    7     7     8    1
    8     7     9    1
    9     7    10    1
   10    10    11    1
   11    10    12    1
   12    10    13    1
   13    13    14    1
   14    13    15    1
   15    15    16    1
   16    15    17    1
   17     1    18    1
   18    15    18    1
   19    18    19    1
   20    18    20    1
   21    13    21    1
   22    21    22    1
@<TRIPOS>SUBSTRUCTURE
       1 MOL1            1 RESIDUE      1      MOL     
@<SCITEGIC>MOL_PROPERTY
VConf Rank
SciTegic.value.IntegerValue
290

@<SCITEGIC>MOL_PROPERTY
Conf_Id
SciTegic.value.IntegerValue
144

@<SCITEGIC>MOL_PROPERTY
Delta U+W
SciTegic.value.DoubleValue
-3.291

@<SCITEGIC>MOL_PROPERTY
U+W
SciTegic.value.DoubleValue
3.132

@<SCITEGIC>MOL_PROPERTY
Grad RMS
SciTegic.value.DoubleValue
0.000000

@<SCITEGIC>MOL_PROPERTY
U
SciTegic.value.DoubleValue
5.411

@<SCITEGIC>MOL_PROPERTY
W
SciTegic.value.DoubleValue
-2.279

@<SCITEGIC>MOL_PROPERTY
W(PB)
SciTegic.value.DoubleValue
-4.300

@<SCITEGIC>MOL_PROPERTY
W(SA)
SciTegic.value.DoubleValue
2.021

@<SCITEGIC>MOL_PROPERTY
Valence
SciTegic.value.DoubleValue
11.909

@<SCITEGIC>MOL_PROPERTY
Coulomb
SciTegic.value.DoubleValue
-8.733

@<SCITEGIC>MOL_PROPERTY
VdW
SciTegic.value.DoubleValue
2.236

@<SCITEGIC>MOL_PROPERTY
VdW6
SciTegic.value.DoubleValue
-8.936

@<SCITEGIC>MOL_PROPERTY
VdW12
SciTegic.value.DoubleValue
11.172

@<SCITEGIC>MOL_PROPERTY
Bond
SciTegic.value.DoubleValue
0.223

@<SCITEGIC>MOL_PROPERTY
Angle
SciTegic.value.DoubleValue
2.457

@<SCITEGIC>MOL_PROPERTY
Pdih
SciTegic.value.DoubleValue
9.228

@<SCITEGIC>MOL_PROPERTY
Idih
SciTegic.value.DoubleValue
0.000

@<SCITEGIC>MOL_PROPERTY
Tether
SciTegic.value.DoubleValue
0.000

@<TRIPOS>MOLECULE
guest-5_confgen4.mol2 : confsearch ligand conformer 291
          22          22           1
SMALL
USER_CHARGES
 
@<TRIPOS>ATOM
       1    C1      18.654056   19.952202   23.744450 C.3        1 MOL1        -0.1685
       2    H1      17.790191   20.418711   24.237396 H          1 MOL1         0.0832
       3    H2      18.946473   19.105794   24.380665 H          1 MOL1         0.0832
       4    C2      19.786866   21.002543   23.669614 C.3        1 MOL1        -0.1685
       5    H3      19.623130   21.655605   22.801585 H          1 MOL1         0.0832
       6    H4      19.720409   21.660017   24.547286 H          1 MOL1         0.0832
       7    C3      21.219933   20.419800   23.618124 C.3        1 MOL1        -0.1685
       8    H5      21.553095   20.199354   24.641511 H          1 MOL1         0.0832
       9    H6      21.894891   21.203267   23.247139 H          1 MOL1         0.0832
      10    C4      21.411719   19.142944   22.763140 C.3        1 MOL1        -0.1761
      11    H7      22.483824   19.041493   22.546880 H          1 MOL1         0.0832
      12    H8      21.144723   18.263663   23.363534 H          1 MOL1         0.0832
      13    C5      20.614333   19.119179   21.439809 C.3        1 MOL1         0.1218
      14    H9      20.549568   20.137415   21.030579 H          1 MOL1         0.0789
      15    C6      19.192351   18.539358   21.615179 C.3        1 MOL1        -0.1761
      16    H10     18.779314   18.314687   20.622680 H          1 MOL1         0.0832
      17    H11     19.250935   17.579020   22.143767 H          1 MOL1         0.0832
      18    C7      18.192476   19.462925   22.350698 C.3        1 MOL1        -0.1685
      19    H12     17.964232   20.330557   21.716629 H          1 MOL1         0.0832
      20    H13     17.244806   18.919497   22.466437 H          1 MOL1         0.0832
      21    O1      21.310131   18.295582   20.513653 O.3        1 MOL1        -0.5509
      22    H14     21.348616   17.402014   20.912671 H          1 MOL1         0.3779
@<TRIPOS>BOND
    1     1     2    1
    2     1     3    1
    3     1     4    1
    4     4     5    1
    5     4     6    1
    6     4     7    1
    7     7     8    1
    8     7     9    1
    9     7    10    1
   10    10    11    1
   11    10    12    1
   12    10    13    1
   13    13    14    1
   14    13    15    1
   15    15    16    1
   16    15    17    1
   17     1    18    1
   18    15    18    1
   19    18    19    1
   20    18    20    1
   21    13    21    1
   22    21    22    1
@<TRIPOS>SUBSTRUCTURE
       1 MOL1            1 RESIDUE      1      MOL     
@<SCITEGIC>MOL_PROPERTY
VConf Rank
SciTegic.value.IntegerValue
291

@<SCITEGIC>MOL_PROPERTY
Conf_Id
SciTegic.value.IntegerValue
76

@<SCITEGIC>MOL_PROPERTY
Delta U+W
SciTegic.value.DoubleValue
-3.175

@<SCITEGIC>MOL_PROPERTY
U+W
SciTegic.value.DoubleValue
3.248

@<SCITEGIC>MOL_PROPERTY
Grad RMS
SciTegic.value.DoubleValue
0.000000

@<SCITEGIC>MOL_PROPERTY
U
SciTegic.value.DoubleValue
5.336

@<SCITEGIC>MOL_PROPERTY
W
SciTegic.value.DoubleValue
-2.088

@<SCITEGIC>MOL_PROPERTY
W(PB)
SciTegic.value.DoubleValue
-4.098

@<SCITEGIC>MOL_PROPERTY
W(SA)
SciTegic.value.DoubleValue
2.010

@<SCITEGIC>MOL_PROPERTY
Valence
SciTegic.value.DoubleValue
12.390

@<SCITEGIC>MOL_PROPERTY
Coulomb
SciTegic.value.DoubleValue
-9.270

@<SCITEGIC>MOL_PROPERTY
VdW
SciTegic.value.DoubleValue
2.216

@<SCITEGIC>MOL_PROPERTY
VdW6
SciTegic.value.DoubleValue
-8.967

@<SCITEGIC>MOL_PROPERTY
VdW12
SciTegic.value.DoubleValue
11.183

@<SCITEGIC>MOL_PROPERTY
Bond
SciTegic.value.DoubleValue
0.218

@<SCITEGIC>MOL_PROPERTY
Angle
SciTegic.value.DoubleValue
2.426

@<SCITEGIC>MOL_PROPERTY
Pdih
SciTegic.value.DoubleValue
9.745

@<SCITEGIC>MOL_PROPERTY
Idih
SciTegic.value.DoubleValue
0.000

@<SCITEGIC>MOL_PROPERTY
Tether
SciTegic.value.DoubleValue
0.000

@<TRIPOS>MOLECULE
guest-5_confgen4.mol2 : confsearch ligand conformer 292
          22          22           1
SMALL
USER_CHARGES
 
@<TRIPOS>ATOM
       1    C1      21.162021   18.923532   24.073344 C.3        1 MOL1        -0.1685
       2    H1      20.924140   18.890894   25.145318 H          1 MOL1         0.0832
       3    H2      22.139270   18.432539   23.969782 H          1 MOL1         0.0832
       4    C2      21.298858   20.406493   23.652896 C.3        1 MOL1        -0.1685
       5    H3      20.565417   21.012382   24.201934 H          1 MOL1         0.0832
       6    H4      22.282871   20.764126   23.985463 H          1 MOL1         0.0832
       7    C3      21.153989   20.672687   22.136421 C.3        1 MOL1        -0.1685
       8    H5      21.612639   19.865244   21.549469 H          1 MOL1         0.0832
       9    H6      21.718209   21.583443   21.894614 H          1 MOL1         0.0832
      10    C4      19.682899   20.900481   21.705046 C.3        1 MOL1        -0.1761
      11    H7      19.229905   21.660140   22.354835 H          1 MOL1         0.0832
      12    H8      19.676820   21.333911   20.696326 H          1 MOL1         0.0832
      13    C5      18.773623   19.650625   21.691827 C.3        1 MOL1         0.1218
      14    H9      17.744265   20.008982   21.546569 H          1 MOL1         0.0789
      15    C6      18.785044   18.813365   22.995420 C.3        1 MOL1        -0.1761
      16    H10     18.502100   19.446185   23.846513 H          1 MOL1         0.0832
      17    H11     17.992227   18.058947   22.911267 H          1 MOL1         0.0832
      18    C7      20.119407   18.083227   23.298058 C.3        1 MOL1        -0.1685
      19    H12     19.903779   17.183722   23.890356 H          1 MOL1         0.0832
      20    H13     20.568087   17.716419   22.365546 H          1 MOL1         0.0832
      21    O1      19.118695   18.830343   20.580034 O.3        1 MOL1        -0.5509
      22    H14     18.557956   18.030121   20.639189 H          1 MOL1         0.3779
@<TRIPOS>BOND
    1     1     2    1
    2     1     3    1
    3     1     4    1
    4     4     5    1
    5     4     6    1
    6     4     7    1
    7     7     8    1
    8     7     9    1
    9     7    10    1
   10    10    11    1
   11    10    12    1
   12    10    13    1
   13    13    14    1
   14    13    15    1
   15    15    16    1
   16    15    17    1
   17     1    18    1
   18    15    18    1
   19    18    19    1
   20    18    20    1
   21    13    21    1
   22    21    22    1
@<TRIPOS>SUBSTRUCTURE
       1 MOL1            1 RESIDUE      1      MOL     
@<SCITEGIC>MOL_PROPERTY
VConf Rank
SciTegic.value.IntegerValue
292

@<SCITEGIC>MOL_PROPERTY
Conf_Id
SciTegic.value.IntegerValue
95

@<SCITEGIC>MOL_PROPERTY
Delta U+W
SciTegic.value.DoubleValue
-2.289

@<SCITEGIC>MOL_PROPERTY
U+W
SciTegic.value.DoubleValue
4.134

@<SCITEGIC>MOL_PROPERTY
Grad RMS
SciTegic.value.DoubleValue
0.000000

@<SCITEGIC>MOL_PROPERTY
U
SciTegic.value.DoubleValue
6.373

@<SCITEGIC>MOL_PROPERTY
W
SciTegic.value.DoubleValue
-2.240

@<SCITEGIC>MOL_PROPERTY
W(PB)
SciTegic.value.DoubleValue
-4.254

@<SCITEGIC>MOL_PROPERTY
W(SA)
SciTegic.value.DoubleValue
2.015

@<SCITEGIC>MOL_PROPERTY
Valence
SciTegic.value.DoubleValue
12.093

@<SCITEGIC>MOL_PROPERTY
Coulomb
SciTegic.value.DoubleValue
-8.058

@<SCITEGIC>MOL_PROPERTY
VdW
SciTegic.value.DoubleValue
2.339

@<SCITEGIC>MOL_PROPERTY
VdW6
SciTegic.value.DoubleValue
-9.683

@<SCITEGIC>MOL_PROPERTY
VdW12
SciTegic.value.DoubleValue
12.022

@<SCITEGIC>MOL_PROPERTY
Bond
SciTegic.value.DoubleValue
0.268

@<SCITEGIC>MOL_PROPERTY
Angle
SciTegic.value.DoubleValue
3.005

@<SCITEGIC>MOL_PROPERTY
Pdih
SciTegic.value.DoubleValue
8.820

@<SCITEGIC>MOL_PROPERTY
Idih
SciTegic.value.DoubleValue
0.000

@<SCITEGIC>MOL_PROPERTY
Tether
SciTegic.value.DoubleValue
0.000

@<TRIPOS>MOLECULE
guest-5_confgen4.mol2 : confsearch ligand conformer 293
          22          22           1
SMALL
USER_CHARGES
 
@<TRIPOS>ATOM
       1    C1      18.859071   18.288652   23.378987 C.3        1 MOL1        -0.1685
       2    H1      18.683396   17.280283   22.980133 H          1 MOL1         0.0832
       3    H2      18.236758   18.364835   24.281047 H          1 MOL1         0.0832
       4    C2      18.357394   19.315798   22.336097 C.3        1 MOL1        -0.1685
       5    H3      18.560580   18.939144   21.324500 H          1 MOL1         0.0832
       6    H4      17.263030   19.371475   22.413981 H          1 MOL1         0.0832
       7    C3      18.944270   20.738993   22.483094 C.3        1 MOL1        -0.1685
       8    H5      19.059493   21.009414   23.541591 H          1 MOL1         0.0832
       9    H6      18.220304   21.450576   22.063632 H          1 MOL1         0.0832
      10    C4      20.279437   20.916796   21.716920 C.3        1 MOL1        -0.1761
      11    H7      20.153025   20.557759   20.687352 H          1 MOL1         0.0832
      12    H8      20.492119   21.989932   21.626758 H          1 MOL1         0.0832
      13    C5      21.516888   20.225136   22.333407 C.3        1 MOL1         0.1218
      14    H9      22.324602   20.298571   21.590908 H          1 MOL1         0.0789
      15    C6      21.335529   18.721534   22.659944 C.3        1 MOL1        -0.1761
      16    H10     21.048393   18.173327   21.753572 H          1 MOL1         0.0832
      17    H11     22.320337   18.331049   22.947180 H          1 MOL1         0.0832
      18    C7      20.340555   18.411380   23.808541 C.3        1 MOL1        -0.1685
      19    H12     20.633668   17.465219   24.282968 H          1 MOL1         0.0832
      20    H13     20.431509   19.170803   24.596338 H          1 MOL1         0.0832
      21    O1      21.921573   20.934095   23.500669 O.3        1 MOL1        -0.5509
      22    H14     22.004402   21.875042   23.243873 H          1 MOL1         0.3779
@<TRIPOS>BOND
    1     1     2    1
    2     1     3    1
    3     1     4    1
    4     4     5    1
    5     4     6    1
    6     4     7    1
    7     7     8    1
    8     7     9    1
    9     7    10    1
   10    10    11    1
   11    10    12    1
   12    10    13    1
   13    13    14    1
   14    13    15    1
   15    15    16    1
   16    15    17    1
   17     1    18    1
   18    15    18    1
   19    18    19    1
   20    18    20    1
   21    13    21    1
   22    21    22    1
@<TRIPOS>SUBSTRUCTURE
       1 MOL1            1 RESIDUE      1      MOL     
@<SCITEGIC>MOL_PROPERTY
VConf Rank
SciTegic.value.IntegerValue
293

@<SCITEGIC>MOL_PROPERTY
Conf_Id
SciTegic.value.IntegerValue
41

@<SCITEGIC>MOL_PROPERTY
Delta U+W
SciTegic.value.DoubleValue
-2.114

@<SCITEGIC>MOL_PROPERTY
U+W
SciTegic.value.DoubleValue
4.310

@<SCITEGIC>MOL_PROPERTY
Grad RMS
SciTegic.value.DoubleValue
0.000000

@<SCITEGIC>MOL_PROPERTY
U
SciTegic.value.DoubleValue
6.598

@<SCITEGIC>MOL_PROPERTY
W
SciTegic.value.DoubleValue
-2.289

@<SCITEGIC>MOL_PROPERTY
W(PB)
SciTegic.value.DoubleValue
-4.294

@<SCITEGIC>MOL_PROPERTY
W(SA)
SciTegic.value.DoubleValue
2.005

@<SCITEGIC>MOL_PROPERTY
Valence
SciTegic.value.DoubleValue
12.082

@<SCITEGIC>MOL_PROPERTY
Coulomb
SciTegic.value.DoubleValue
-7.801

@<SCITEGIC>MOL_PROPERTY
VdW
SciTegic.value.DoubleValue
2.317

@<SCITEGIC>MOL_PROPERTY
VdW6
SciTegic.value.DoubleValue
-9.658

@<SCITEGIC>MOL_PROPERTY
VdW12
SciTegic.value.DoubleValue
11.975

@<SCITEGIC>MOL_PROPERTY
Bond
SciTegic.value.DoubleValue
0.267

@<SCITEGIC>MOL_PROPERTY
Angle
SciTegic.value.DoubleValue
3.051

@<SCITEGIC>MOL_PROPERTY
Pdih
SciTegic.value.DoubleValue
8.764

@<SCITEGIC>MOL_PROPERTY
Idih
SciTegic.value.DoubleValue
0.000

@<SCITEGIC>MOL_PROPERTY
Tether
SciTegic.value.DoubleValue
0.000

@<TRIPOS>MOLECULE
guest-5_confgen4.mol2 : confsearch ligand conformer 294
          22          22           1
SMALL
USER_CHARGES
 
@<TRIPOS>ATOM
       1    C1      18.816282   19.182340   23.734327 C.3        1 MOL1        -0.1685
       2    H1      17.837069   19.057409   24.216078 H          1 MOL1         0.0832
       3    H2      19.495134   18.473447   24.228096 H          1 MOL1         0.0832
       4    C2      19.278837   20.637405   23.971428 C.3        1 MOL1        -0.1685
       5    H3      18.624567   21.325631   23.419289 H          1 MOL1         0.0832
       6    H4      19.142769   20.879988   25.034065 H          1 MOL1         0.0832
       7    C3      20.751335   20.914426   23.596954 C.3        1 MOL1        -0.1685
       8    H5      21.412032   20.383096   24.294849 H          1 MOL1         0.0832
       9    H6      20.947239   21.982363   23.762051 H          1 MOL1         0.0832
      10    C4      21.136322   20.567939   22.133083 C.3        1 MOL1        -0.1761
      11    H7      20.429185   21.036195   21.436698 H          1 MOL1         0.0832
      12    H8      22.108300   21.033827   21.926226 H          1 MOL1         0.0832
      13    C5      21.274840   19.058542   21.806637 C.3        1 MOL1         0.1218
      14    H9      21.845128   18.989804   20.868914 H          1 MOL1         0.0789
      15    C6      19.947707   18.294665   21.560973 C.3        1 MOL1        -0.1761
      16    H10     19.766628   18.269790   20.478544 H          1 MOL1         0.0832
      17    H11     20.079327   17.245089   21.855148 H          1 MOL1         0.0832
      18    C7      18.664927   18.840944   22.235475 C.3        1 MOL1        -0.1685
      19    H12     18.301881   19.721492   21.688440 H          1 MOL1         0.0832
      20    H13     17.878694   18.081661   22.125901 H          1 MOL1         0.0832
      21    O1      22.028758   18.396886   22.818930 O.3        1 MOL1        -0.5509
      22    H14     22.116926   17.462689   22.540701 H          1 MOL1         0.3779
@<TRIPOS>BOND
    1     1     2    1
    2     1     3    1
    3     1     4    1
    4     4     5    1
    5     4     6    1
    6     4     7    1
    7     7     8    1
    8     7     9    1
    9     7    10    1
   10    10    11    1
   11    10    12    1
   12    10    13    1
   13    13    14    1
   14    13    15    1
   15    15    16    1
   16    15    17    1
   17     1    18    1
   18    15    18    1
   19    18    19    1
   20    18    20    1
   21    13    21    1
   22    21    22    1
@<TRIPOS>SUBSTRUCTURE
       1 MOL1            1 RESIDUE      1      MOL     
@<SCITEGIC>MOL_PROPERTY
VConf Rank
SciTegic.value.IntegerValue
294

@<SCITEGIC>MOL_PROPERTY
Conf_Id
SciTegic.value.IntegerValue
104

@<SCITEGIC>MOL_PROPERTY
Delta U+W
SciTegic.value.DoubleValue
-1.172

@<SCITEGIC>MOL_PROPERTY
U+W
SciTegic.value.DoubleValue
5.252

@<SCITEGIC>MOL_PROPERTY
Grad RMS
SciTegic.value.DoubleValue
0.000000

@<SCITEGIC>MOL_PROPERTY
U
SciTegic.value.DoubleValue
7.482

@<SCITEGIC>MOL_PROPERTY
W
SciTegic.value.DoubleValue
-2.230

@<SCITEGIC>MOL_PROPERTY
W(PB)
SciTegic.value.DoubleValue
-4.220

@<SCITEGIC>MOL_PROPERTY
W(SA)
SciTegic.value.DoubleValue
1.990

@<SCITEGIC>MOL_PROPERTY
Valence
SciTegic.value.DoubleValue
12.309

@<SCITEGIC>MOL_PROPERTY
Coulomb
SciTegic.value.DoubleValue
-7.084

@<SCITEGIC>MOL_PROPERTY
VdW
SciTegic.value.DoubleValue
2.258

@<SCITEGIC>MOL_PROPERTY
VdW6
SciTegic.value.DoubleValue
-9.770

@<SCITEGIC>MOL_PROPERTY
VdW12
SciTegic.value.DoubleValue
12.028

@<SCITEGIC>MOL_PROPERTY
Bond
SciTegic.value.DoubleValue
0.284

@<SCITEGIC>MOL_PROPERTY
Angle
SciTegic.value.DoubleValue
3.491

@<SCITEGIC>MOL_PROPERTY
Pdih
SciTegic.value.DoubleValue
8.535

@<SCITEGIC>MOL_PROPERTY
Idih
SciTegic.value.DoubleValue
0.000

@<SCITEGIC>MOL_PROPERTY
Tether
SciTegic.value.DoubleValue
0.000

@<TRIPOS>MOLECULE
guest-5_confgen4.mol2 : confsearch ligand conformer 295
          22          22           1
SMALL
USER_CHARGES
 
@<TRIPOS>ATOM
       1    C1      20.845375   20.058731   24.037561 C.3        1 MOL1        -0.1685
       2    H1      19.913064   20.171988   24.607168 H          1 MOL1         0.0832
       3    H2      21.654540   20.348984   24.721626 H          1 MOL1         0.0832
       4    C2      20.876466   21.025146   22.831510 C.3        1 MOL1        -0.1685
       5    H3      21.153856   22.025574   23.191300 H          1 MOL1         0.0832
       6    H4      21.687786   20.732789   22.152081 H          1 MOL1         0.0832
       7    C3      19.548725   21.158503   22.043478 C.3        1 MOL1        -0.1685
       8    H5      19.783672   21.470664   21.016507 H          1 MOL1         0.0832
       9    H6      18.970659   21.987326   22.474547 H          1 MOL1         0.0832
      10    C4      18.620230   19.914704   21.998048 C.3        1 MOL1        -0.1761
      11    H7      18.066651   19.845446   22.943409 H          1 MOL1         0.0832
      12    H8      17.856248   20.090113   21.229566 H          1 MOL1         0.0832
      13    C5      19.285555   18.549045   21.711169 C.3        1 MOL1         0.1218
      14    H9      18.503506   17.878688   21.326588 H          1 MOL1         0.0789
      15    C6      19.860086   17.882618   22.981626 C.3        1 MOL1        -0.1761
      16    H10     19.057136   17.791550   23.724619 H          1 MOL1         0.0832
      17    H11     20.146435   16.853468   22.728449 H          1 MOL1         0.0832
      18    C7      21.075681   18.581383   23.639537 C.3        1 MOL1        -0.1685
      19    H12     21.338406   18.017304   24.544800 H          1 MOL1         0.0832
      20    H13     21.950864   18.505171   22.980200 H          1 MOL1         0.0832
      21    O1      20.300459   18.685450   20.728554 O.3        1 MOL1        -0.5509
      22    H14     20.908309   19.352876   21.104516 H          1 MOL1         0.3779
@<TRIPOS>BOND
    1     1     2    1
    2     1     3    1
    3     1     4    1
    4     4     5    1
    5     4     6    1
    6     4     7    1
    7     7     8    1
    8     7     9    1
    9     7    10    1
   10    10    11    1
   11    10    12    1
   12    10    13    1
   13    13    14    1
   14    13    15    1
   15    15    16    1
   16    15    17    1
   17     1    18    1
   18    15    18    1
   19    18    19    1
   20    18    20    1
   21    13    21    1
   22    21    22    1
@<TRIPOS>SUBSTRUCTURE
       1 MOL1            1 RESIDUE      1      MOL     
@<SCITEGIC>MOL_PROPERTY
VConf Rank
SciTegic.value.IntegerValue
295

@<SCITEGIC>MOL_PROPERTY
Conf_Id
SciTegic.value.IntegerValue
99

@<SCITEGIC>MOL_PROPERTY
Delta U+W
SciTegic.value.DoubleValue
-3.852

@<SCITEGIC>MOL_PROPERTY
U+W
SciTegic.value.DoubleValue
2.572

@<SCITEGIC>MOL_PROPERTY
Grad RMS
SciTegic.value.DoubleValue
0.000000

@<SCITEGIC>MOL_PROPERTY
U
SciTegic.value.DoubleValue
3.922

@<SCITEGIC>MOL_PROPERTY
W
SciTegic.value.DoubleValue
-1.350

@<SCITEGIC>MOL_PROPERTY
W(PB)
SciTegic.value.DoubleValue
-3.345

@<SCITEGIC>MOL_PROPERTY
W(SA)
SciTegic.value.DoubleValue
1.995

@<SCITEGIC>MOL_PROPERTY
Valence
SciTegic.value.DoubleValue
12.571

@<SCITEGIC>MOL_PROPERTY
Coulomb
SciTegic.value.DoubleValue
-10.581

@<SCITEGIC>MOL_PROPERTY
VdW
SciTegic.value.DoubleValue
1.932

@<SCITEGIC>MOL_PROPERTY
VdW6
SciTegic.value.DoubleValue
-10.483

@<SCITEGIC>MOL_PROPERTY
VdW12
SciTegic.value.DoubleValue
12.415

@<SCITEGIC>MOL_PROPERTY
Bond
SciTegic.value.DoubleValue
0.268

@<SCITEGIC>MOL_PROPERTY
Angle
SciTegic.value.DoubleValue
3.728

@<SCITEGIC>MOL_PROPERTY
Pdih
SciTegic.value.DoubleValue
8.575

@<SCITEGIC>MOL_PROPERTY
Idih
SciTegic.value.DoubleValue
0.000

@<SCITEGIC>MOL_PROPERTY
Tether
SciTegic.value.DoubleValue
0.000

@<TRIPOS>MOLECULE
guest-5_confgen4.mol2 : confsearch ligand conformer 296
          22          22           1
SMALL
USER_CHARGES
 
@<TRIPOS>ATOM
       1    C1      20.096567   17.994394   22.202527 C.3        1 MOL1        -0.1685
       2    H1      19.844064   16.935726   22.353370 H          1 MOL1         0.0832
       3    H2      20.622418   18.025457   21.238903 H          1 MOL1         0.0832
       4    C2      21.055478   18.424814   23.351039 C.3        1 MOL1        -0.1685
       5    H3      21.218151   17.552401   23.998899 H          1 MOL1         0.0832
       6    H4      22.047419   18.665252   22.945703 H          1 MOL1         0.0832
       7    C3      20.563411   19.591620   24.245011 C.3        1 MOL1        -0.1685
       8    H5      21.227127   19.663333   25.117401 H          1 MOL1         0.0832
       9    H6      19.580426   19.346487   24.665986 H          1 MOL1         0.0832
      10    C4      20.511318   20.990942   23.571207 C.3        1 MOL1        -0.1761
      11    H7      19.807549   21.616941   24.134747 H          1 MOL1         0.0832
      12    H8      21.490705   21.472075   23.694938 H          1 MOL1         0.0832
      13    C5      20.140743   21.066954   22.069523 C.3        1 MOL1         0.1218
      14    H9      19.936635   22.123488   21.844020 H          1 MOL1         0.0789
      15    C6      18.891567   20.263824   21.630565 C.3        1 MOL1        -0.1761
      16    H10     17.996342   20.803994   21.964524 H          1 MOL1         0.0832
      17    H11     18.852018   20.287275   20.533349 H          1 MOL1         0.0832
      18    C7      18.768173   18.785893   22.094563 C.3        1 MOL1        -0.1685
      19    H12     18.231856   18.741442   23.050574 H          1 MOL1         0.0832
      20    H13     18.111108   18.264772   21.385040 H          1 MOL1         0.0832
      21    O1      21.256540   20.679010   21.283560 O.3        1 MOL1        -0.5509
      22    H14     21.396256   19.739807   21.518741 H          1 MOL1         0.3779
@<TRIPOS>BOND
    1     1     2    1
    2     1     3    1
    3     1     4    1
    4     4     5    1
    5     4     6    1
    6     4     7    1
    7     7     8    1
    8     7     9    1
    9     7    10    1
   10    10    11    1
   11    10    12    1
   12    10    13    1
   13    13    14    1
   14    13    15    1
   15    15    16    1
   16    15    17    1
   17     1    18    1
   18    15    18    1
   19    18    19    1
   20    18    20    1
   21    13    21    1
   22    21    22    1
@<TRIPOS>SUBSTRUCTURE
       1 MOL1            1 RESIDUE      1      MOL     
@<SCITEGIC>MOL_PROPERTY
VConf Rank
SciTegic.value.IntegerValue
296

@<SCITEGIC>MOL_PROPERTY
Conf_Id
SciTegic.value.IntegerValue
98

@<SCITEGIC>MOL_PROPERTY
Delta U+W
SciTegic.value.DoubleValue
0.930

@<SCITEGIC>MOL_PROPERTY
U+W
SciTegic.value.DoubleValue
7.353

@<SCITEGIC>MOL_PROPERTY
Grad RMS
SciTegic.value.DoubleValue
0.000000

@<SCITEGIC>MOL_PROPERTY
U
SciTegic.value.DoubleValue
8.455

@<SCITEGIC>MOL_PROPERTY
W
SciTegic.value.DoubleValue
-1.102

@<SCITEGIC>MOL_PROPERTY
W(PB)
SciTegic.value.DoubleValue
-3.101

@<SCITEGIC>MOL_PROPERTY
W(SA)
SciTegic.value.DoubleValue
2.000

@<SCITEGIC>MOL_PROPERTY
Valence
SciTegic.value.DoubleValue
15.601

@<SCITEGIC>MOL_PROPERTY
Coulomb
SciTegic.value.DoubleValue
-10.573

@<SCITEGIC>MOL_PROPERTY
VdW
SciTegic.value.DoubleValue
3.427

@<SCITEGIC>MOL_PROPERTY
VdW6
SciTegic.value.DoubleValue
-11.360

@<SCITEGIC>MOL_PROPERTY
VdW12
SciTegic.value.DoubleValue
14.787

@<SCITEGIC>MOL_PROPERTY
Bond
SciTegic.value.DoubleValue
0.471

@<SCITEGIC>MOL_PROPERTY
Angle
SciTegic.value.DoubleValue
5.445

@<SCITEGIC>MOL_PROPERTY
Pdih
SciTegic.value.DoubleValue
9.685

@<SCITEGIC>MOL_PROPERTY
Idih
SciTegic.value.DoubleValue
0.000

@<SCITEGIC>MOL_PROPERTY
Tether
SciTegic.value.DoubleValue
0.000

@<TRIPOS>MOLECULE
guest-5_confgen4.mol2 : confsearch ligand conformer 297
          22          22           1
SMALL
USER_CHARGES
 
@<TRIPOS>ATOM
       1    C1      20.662613   19.252580   21.087703 C.3        1 MOL1        -0.1685
       2    H1      20.349177   18.206975   21.202811 H          1 MOL1         0.0832
       3    H2      21.080088   19.315094   20.073544 H          1 MOL1         0.0832
       4    C2      21.786197   19.577692   22.104570 C.3        1 MOL1        -0.1685
       5    H3      22.620255   18.890656   21.906567 H          1 MOL1         0.0832
       6    H4      22.178138   20.585202   21.909816 H          1 MOL1         0.0832
       7    C3      21.408009   19.458571   23.607045 C.3        1 MOL1        -0.1685
       8    H5      21.254471   20.456947   24.036795 H          1 MOL1         0.0832
       9    H6      22.272688   19.048603   24.146388 H          1 MOL1         0.0832
      10    C4      20.170262   18.571401   23.904740 C.3        1 MOL1        -0.1761
      11    H7      20.301102   17.596412   23.419041 H          1 MOL1         0.0832
      12    H8      20.155077   18.350335   24.980513 H          1 MOL1         0.0832
      13    C5      18.791892   19.166799   23.493077 C.3        1 MOL1         0.1218
      14    H9      18.224594   18.380654   22.974215 H          1 MOL1         0.0789
      15    C6      18.840049   20.413747   22.574895 C.3        1 MOL1        -0.1761
      16    H10     17.822378   20.808219   22.457441 H          1 MOL1         0.0832
      17    H11     19.401142   21.215317   23.070122 H          1 MOL1         0.0832
      18    C7      19.422440   20.174238   21.159528 C.3        1 MOL1        -0.1685
      19    H12     18.639151   19.743287   20.521129 H          1 MOL1         0.0832
      20    H13     19.670893   21.147939   20.715854 H          1 MOL1         0.0832
      21    O1      18.088770   19.534218   24.674517 O.3        1 MOL1        -0.5509
      22    H14     17.205868   19.850917   24.391030 H          1 MOL1         0.3779
@<TRIPOS>BOND
    1     1     2    1
    2     1     3    1
    3     1     4    1
    4     4     5    1
    5     4     6    1
    6     4     7    1
    7     7     8    1
    8     7     9    1
    9     7    10    1
   10    10    11    1
   11    10    12    1
   12    10    13    1
   13    13    14    1
   14    13    15    1
   15    15    16    1
   16    15    17    1
   17     1    18    1
   18    15    18    1
   19    18    19    1
   20    18    20    1
   21    13    21    1
   22    21    22    1
@<TRIPOS>SUBSTRUCTURE
       1 MOL1            1 RESIDUE      1      MOL     
@<SCITEGIC>MOL_PROPERTY
VConf Rank
SciTegic.value.IntegerValue
297

@<SCITEGIC>MOL_PROPERTY
Conf_Id
SciTegic.value.IntegerValue
141

@<SCITEGIC>MOL_PROPERTY
Delta U+W
SciTegic.value.DoubleValue
0.000

@<SCITEGIC>MOL_PROPERTY
U+W
SciTegic.value.DoubleValue
6.423

@<SCITEGIC>MOL_PROPERTY
Grad RMS
SciTegic.value.DoubleValue
0.000000

@<SCITEGIC>MOL_PROPERTY
U
SciTegic.value.DoubleValue
8.781

@<SCITEGIC>MOL_PROPERTY
W
SciTegic.value.DoubleValue
-2.358

@<SCITEGIC>MOL_PROPERTY
W(PB)
SciTegic.value.DoubleValue
-4.373

@<SCITEGIC>MOL_PROPERTY
W(SA)
SciTegic.value.DoubleValue
2.015

@<SCITEGIC>MOL_PROPERTY
Valence
SciTegic.value.DoubleValue
13.328

@<SCITEGIC>MOL_PROPERTY
Coulomb
SciTegic.value.DoubleValue
-8.387

@<SCITEGIC>MOL_PROPERTY
VdW
SciTegic.value.DoubleValue
3.840

@<SCITEGIC>MOL_PROPERTY
VdW6
SciTegic.value.DoubleValue
-9.744

@<SCITEGIC>MOL_PROPERTY
VdW12
SciTegic.value.DoubleValue
13.584

@<SCITEGIC>MOL_PROPERTY
Bond
SciTegic.value.DoubleValue
0.436

@<SCITEGIC>MOL_PROPERTY
Angle
SciTegic.value.DoubleValue
3.478

@<SCITEGIC>MOL_PROPERTY
Pdih
SciTegic.value.DoubleValue
9.415

@<SCITEGIC>MOL_PROPERTY
Idih
SciTegic.value.DoubleValue
0.000

@<SCITEGIC>MOL_PROPERTY
Tether
SciTegic.value.DoubleValue
0.000

@<TRIPOS>MOLECULE
guest-5_confgen4.mol2 : confsearch ligand conformer 298
          22          22           1
SMALL
USER_CHARGES
 
@<TRIPOS>ATOM
       1    C1      19.977936   20.893607   23.847162 C.3        1 MOL1        -0.1685
       2    H1      18.995849   20.539880   24.189203 H          1 MOL1         0.0832
       3    H2      20.249789   21.724779   24.512109 H          1 MOL1         0.0832
       4    C2      19.893819   21.453031   22.406460 C.3        1 MOL1        -0.1685
       5    H3      19.306973   22.381530   22.425342 H          1 MOL1         0.0832
       6    H4      20.898507   21.741883   22.068753 H          1 MOL1         0.0832
       7    C3      19.258442   20.502186   21.366017 C.3        1 MOL1        -0.1685
       8    H5      19.318806   20.983591   20.380404 H          1 MOL1         0.0832
       9    H6      18.186605   20.391045   21.579961 H          1 MOL1         0.0832
      10    C4      19.913586   19.102415   21.273243 C.3        1 MOL1        -0.1761
      11    H7      19.536782   18.619295   20.362146 H          1 MOL1         0.0832
      12    H8      21.000162   19.191147   21.144884 H          1 MOL1         0.0832
      13    C5      19.583458   18.207517   22.488892 C.3        1 MOL1         0.1218
      14    H9      18.572794   18.461909   22.839160 H          1 MOL1         0.0789
      15    C6      20.560049   18.354157   23.678035 C.3        1 MOL1        -0.1761
      16    H10     20.064602   17.941509   24.566350 H          1 MOL1         0.0832
      17    H11     21.441388   17.722308   23.504491 H          1 MOL1         0.0832
      18    C7      21.048519   19.788203   24.002001 C.3        1 MOL1        -0.1685
      19    H12     21.420971   19.794524   25.035473 H          1 MOL1         0.0832
      20    H13     21.917273   20.030854   23.375027 H          1 MOL1         0.0832
      21    O1      19.595907   16.847181   22.073500 O.3        1 MOL1        -0.5509
      22    H14     18.916842   16.759959   21.372158 H          1 MOL1         0.3779
@<TRIPOS>BOND
    1     1     2    1
    2     1     3    1
    3     1     4    1
    4     4     5    1
    5     4     6    1
    6     4     7    1
    7     7     8    1
    8     7     9    1
    9     7    10    1
   10    10    11    1
   11    10    12    1
   12    10    13    1
   13    13    14    1
   14    13    15    1
   15    15    16    1
   16    15    17    1
   17     1    18    1
   18    15    18    1
   19    18    19    1
   20    18    20    1
   21    13    21    1
   22    21    22    1
@<TRIPOS>SUBSTRUCTURE
       1 MOL1            1 RESIDUE      1      MOL     
@<SCITEGIC>MOL_PROPERTY
VConf Rank
SciTegic.value.IntegerValue
298

@<SCITEGIC>MOL_PROPERTY
Conf_Id
SciTegic.value.IntegerValue
144

@<SCITEGIC>MOL_PROPERTY
Delta U+W
SciTegic.value.DoubleValue
-3.291

@<SCITEGIC>MOL_PROPERTY
U+W
SciTegic.value.DoubleValue
3.132

@<SCITEGIC>MOL_PROPERTY
Grad RMS
SciTegic.value.DoubleValue
0.000000

@<SCITEGIC>MOL_PROPERTY
U
SciTegic.value.DoubleValue
5.411

@<SCITEGIC>MOL_PROPERTY
W
SciTegic.value.DoubleValue
-2.279

@<SCITEGIC>MOL_PROPERTY
W(PB)
SciTegic.value.DoubleValue
-4.300

@<SCITEGIC>MOL_PROPERTY
W(SA)
SciTegic.value.DoubleValue
2.021

@<SCITEGIC>MOL_PROPERTY
Valence
SciTegic.value.DoubleValue
11.909

@<SCITEGIC>MOL_PROPERTY
Coulomb
SciTegic.value.DoubleValue
-8.733

@<SCITEGIC>MOL_PROPERTY
VdW
SciTegic.value.DoubleValue
2.236

@<SCITEGIC>MOL_PROPERTY
VdW6
SciTegic.value.DoubleValue
-8.936

@<SCITEGIC>MOL_PROPERTY
VdW12
SciTegic.value.DoubleValue
11.172

@<SCITEGIC>MOL_PROPERTY
Bond
SciTegic.value.DoubleValue
0.223

@<SCITEGIC>MOL_PROPERTY
Angle
SciTegic.value.DoubleValue
2.457

@<SCITEGIC>MOL_PROPERTY
Pdih
SciTegic.value.DoubleValue
9.228

@<SCITEGIC>MOL_PROPERTY
Idih
SciTegic.value.DoubleValue
0.000

@<SCITEGIC>MOL_PROPERTY
Tether
SciTegic.value.DoubleValue
0.000

@<TRIPOS>MOLECULE
guest-5_confgen4.mol2 : confsearch ligand conformer 299
          22          22           1
SMALL
USER_CHARGES
 
@<TRIPOS>ATOM
       1    C1      18.472121   19.846131   21.779832 C.3        1 MOL1        -0.1685
       2    H1      17.521569   20.258638   21.414894 H          1 MOL1         0.0832
       3    H2      18.691186   18.978264   21.143044 H          1 MOL1         0.0832
       4    C2      18.272336   19.413606   23.251254 C.3        1 MOL1        -0.1685
       5    H3      18.380785   20.288042   23.907284 H          1 MOL1         0.0832
       6    H4      17.235854   19.074514   23.384369 H          1 MOL1         0.0832
       7    C3      19.210096   18.281420   23.735695 C.3        1 MOL1        -0.1685
       8    H5      18.783561   17.313082   23.440222 H          1 MOL1         0.0832
       9    H6      19.210755   18.284108   24.834336 H          1 MOL1         0.0832
      10    C4      20.672923   18.338101   23.230654 C.3        1 MOL1        -0.1761
      11    H7      21.280996   17.705303   23.891172 H          1 MOL1         0.0832
      12    H8      20.729786   17.873125   22.237951 H          1 MOL1         0.0832
      13    C5      21.285640   19.755175   23.166850 C.3        1 MOL1         0.1218
      14    H9      20.888127   20.365646   23.990122 H          1 MOL1         0.0789
      15    C6      21.010169   20.459698   21.818984 C.3        1 MOL1        -0.1761
      16    H10     21.670262   21.333648   21.737622 H          1 MOL1         0.0832
      17    H11     21.287894   19.791949   20.993111 H          1 MOL1         0.0832
      18    C7      19.553860   20.940457   21.614652 C.3        1 MOL1        -0.1685
      19    H12     19.343590   21.768480   22.305369 H          1 MOL1         0.0832
      20    H13     19.471222   21.365004   20.604841 H          1 MOL1         0.0832
      21    O1      22.694112   19.640211   23.319168 O.3        1 MOL1        -0.5509
      22    H14     23.009231   19.091027   22.572002 H          1 MOL1         0.3779
@<TRIPOS>BOND
    1     1     2    1
    2     1     3    1
    3     1     4    1
    4     4     5    1
    5     4     6    1
    6     4     7    1
    7     7     8    1
    8     7     9    1
    9     7    10    1
   10    10    11    1
   11    10    12    1
   12    10    13    1
   13    13    14    1
   14    13    15    1
   15    15    16    1
   16    15    17    1
   17     1    18    1
   18    15    18    1
   19    18    19    1
   20    18    20    1
   21    13    21    1
   22    21    22    1
@<TRIPOS>SUBSTRUCTURE
       1 MOL1            1 RESIDUE      1      MOL     
@<SCITEGIC>MOL_PROPERTY
VConf Rank
SciTegic.value.IntegerValue
299

@<SCITEGIC>MOL_PROPERTY
Conf_Id
SciTegic.value.IntegerValue
76

@<SCITEGIC>MOL_PROPERTY
Delta U+W
SciTegic.value.DoubleValue
-3.175

@<SCITEGIC>MOL_PROPERTY
U+W
SciTegic.value.DoubleValue
3.248

@<SCITEGIC>MOL_PROPERTY
Grad RMS
SciTegic.value.DoubleValue
0.000000

@<SCITEGIC>MOL_PROPERTY
U
SciTegic.value.DoubleValue
5.336

@<SCITEGIC>MOL_PROPERTY
W
SciTegic.value.DoubleValue
-2.088

@<SCITEGIC>MOL_PROPERTY
W(PB)
SciTegic.value.DoubleValue
-4.098

@<SCITEGIC>MOL_PROPERTY
W(SA)
SciTegic.value.DoubleValue
2.010

@<SCITEGIC>MOL_PROPERTY
Valence
SciTegic.value.DoubleValue
12.390

@<SCITEGIC>MOL_PROPERTY
Coulomb
SciTegic.value.DoubleValue
-9.270

@<SCITEGIC>MOL_PROPERTY
VdW
SciTegic.value.DoubleValue
2.216

@<SCITEGIC>MOL_PROPERTY
VdW6
SciTegic.value.DoubleValue
-8.967

@<SCITEGIC>MOL_PROPERTY
VdW12
SciTegic.value.DoubleValue
11.183

@<SCITEGIC>MOL_PROPERTY
Bond
SciTegic.value.DoubleValue
0.218

@<SCITEGIC>MOL_PROPERTY
Angle
SciTegic.value.DoubleValue
2.426

@<SCITEGIC>MOL_PROPERTY
Pdih
SciTegic.value.DoubleValue
9.745

@<SCITEGIC>MOL_PROPERTY
Idih
SciTegic.value.DoubleValue
0.000

@<SCITEGIC>MOL_PROPERTY
Tether
SciTegic.value.DoubleValue
0.000

@<TRIPOS>MOLECULE
guest-5_confgen4.mol2 : confsearch ligand conformer 300
          22          22           1
SMALL
USER_CHARGES
 
@<TRIPOS>ATOM
       1    C1      20.479261   19.332163   24.503746 C.3        1 MOL1        -0.1685
       2    H1      19.787954   19.401215   25.354692 H          1 MOL1         0.0832
       3    H2      21.444177   19.022630   24.927941 H          1 MOL1         0.0832
       4    C2      20.631763   20.743774   23.888303 C.3        1 MOL1        -0.1685
       5    H3      19.669359   21.270913   23.937114 H          1 MOL1         0.0832
       6    H4      21.314979   21.320344   24.526713 H          1 MOL1         0.0832
       7    C3      21.159783   20.770406   22.435021 C.3        1 MOL1        -0.1685
       8    H5      21.917451   19.990756   22.277159 H          1 MOL1         0.0832
       9    H6      21.671376   21.729123   22.275568 H          1 MOL1         0.0832
      10    C4      20.027133   20.659277   21.382958 C.3        1 MOL1        -0.1761
      11    H7      19.251208   21.401995   21.608396 H          1 MOL1         0.0832
      12    H8      20.430919   20.943292   20.402292 H          1 MOL1         0.0832
      13    C5      19.361313   19.271697   21.240118 C.3        1 MOL1         0.1218
      14    H9      18.476784   19.408749   20.601430 H          1 MOL1         0.0789
      15    C6      18.872283   18.635655   22.565557 C.3        1 MOL1        -0.1761
      16    H10     18.169647   19.313928   23.066683 H          1 MOL1         0.0832
      17    H11     18.288677   17.742287   22.308487 H          1 MOL1         0.0832
      18    C7      19.995671   18.215032   23.548559 C.3        1 MOL1        -0.1685
      19    H12     19.633383   17.379745   24.162941 H          1 MOL1         0.0832
      20    H13     20.853438   17.815493   22.991743 H          1 MOL1         0.0832
      21    O1      20.256755   18.387290   20.573761 O.3        1 MOL1        -0.5509
      22    H14     19.818906   17.512043   20.551044 H          1 MOL1         0.3779
@<TRIPOS>BOND
    1     1     2    1
    2     1     3    1
    3     1     4    1
    4     4     5    1
    5     4     6    1
    6     4     7    1
    7     7     8    1
    8     7     9    1
    9     7    10    1
   10    10    11    1
   11    10    12    1
   12    10    13    1
   13    13    14    1
   14    13    15    1
   15    15    16    1
   16    15    17    1
   17     1    18    1
   18    15    18    1
   19    18    19    1
   20    18    20    1
   21    13    21    1
   22    21    22    1
@<TRIPOS>SUBSTRUCTURE
       1 MOL1            1 RESIDUE      1      MOL     
@<SCITEGIC>MOL_PROPERTY
VConf Rank
SciTegic.value.IntegerValue
300

@<SCITEGIC>MOL_PROPERTY
Conf_Id
SciTegic.value.IntegerValue
95

@<SCITEGIC>MOL_PROPERTY
Delta U+W
SciTegic.value.DoubleValue
-2.289

@<SCITEGIC>MOL_PROPERTY
U+W
SciTegic.value.DoubleValue
4.134

@<SCITEGIC>MOL_PROPERTY
Grad RMS
SciTegic.value.DoubleValue
0.000000

@<SCITEGIC>MOL_PROPERTY
U
SciTegic.value.DoubleValue
6.373

@<SCITEGIC>MOL_PROPERTY
W
SciTegic.value.DoubleValue
-2.240

@<SCITEGIC>MOL_PROPERTY
W(PB)
SciTegic.value.DoubleValue
-4.254

@<SCITEGIC>MOL_PROPERTY
W(SA)
SciTegic.value.DoubleValue
2.015

@<SCITEGIC>MOL_PROPERTY
Valence
SciTegic.value.DoubleValue
12.093

@<SCITEGIC>MOL_PROPERTY
Coulomb
SciTegic.value.DoubleValue
-8.058

@<SCITEGIC>MOL_PROPERTY
VdW
SciTegic.value.DoubleValue
2.339

@<SCITEGIC>MOL_PROPERTY
VdW6
SciTegic.value.DoubleValue
-9.683

@<SCITEGIC>MOL_PROPERTY
VdW12
SciTegic.value.DoubleValue
12.022

@<SCITEGIC>MOL_PROPERTY
Bond
SciTegic.value.DoubleValue
0.268

@<SCITEGIC>MOL_PROPERTY
Angle
SciTegic.value.DoubleValue
3.005

@<SCITEGIC>MOL_PROPERTY
Pdih
SciTegic.value.DoubleValue
8.820

@<SCITEGIC>MOL_PROPERTY
Idih
SciTegic.value.DoubleValue
0.000

@<SCITEGIC>MOL_PROPERTY
Tether
SciTegic.value.DoubleValue
0.000

@<TRIPOS>MOLECULE
guest-5_confgen4.mol2 : confsearch ligand conformer 301
          22          22           1
SMALL
USER_CHARGES
 
@<TRIPOS>ATOM
       1    C1      20.449110   20.036572   24.529913 C.3        1 MOL1        -0.1685
       2    H1      21.410705   20.357233   24.953312 H          1 MOL1         0.0832
       3    H2      19.740230   20.033609   25.369122 H          1 MOL1         0.0832
       4    C2      20.609834   18.589925   24.004834 C.3        1 MOL1        -0.1685
       5    H3      21.615610   18.463866   23.581744 H          1 MOL1         0.0832
       6    H4      20.566659   17.909568   24.866256 H          1 MOL1         0.0832
       7    C3      19.554455   18.149522   22.963807 C.3        1 MOL1        -0.1685
       8    H5      18.565954   18.562398   23.207154 H          1 MOL1         0.0832
       9    H6      19.452099   17.057589   23.024066 H          1 MOL1         0.0832
      10    C4      19.962185   18.506223   21.511970 C.3        1 MOL1        -0.1761
      11    H7      20.986080   18.154864   21.330086 H          1 MOL1         0.0832
      12    H8      19.331002   17.934221   20.819580 H          1 MOL1         0.0832
      13    C5      19.876647   20.001013   21.127236 C.3        1 MOL1         0.1218
      14    H9      20.358522   20.104036   20.144239 H          1 MOL1         0.0789
      15    C6      20.602413   20.971311   22.092699 C.3        1 MOL1        -0.1761
      16    H10     21.661421   20.695290   22.175174 H          1 MOL1         0.0832
      17    H11     20.586965   21.964763   21.626177 H          1 MOL1         0.0832
      18    C7      19.971230   21.092042   23.504249 C.3        1 MOL1        -0.1685
      19    H12     20.202926   22.085899   23.910182 H          1 MOL1         0.0832
      20    H13     18.876413   21.058478   23.427631 H          1 MOL1         0.0832
      21    O1      18.509250   20.376455   20.992469 O.3        1 MOL1        -0.5509
      22    H14     18.096626   19.724943   20.389592 H          1 MOL1         0.3779
@<TRIPOS>BOND
    1     1     2    1
    2     1     3    1
    3     1     4    1
    4     4     5    1
    5     4     6    1
    6     4     7    1
    7     7     8    1
    8     7     9    1
    9     7    10    1
   10    10    11    1
   11    10    12    1
   12    10    13    1
   13    13    14    1
   14    13    15    1
   15    15    16    1
   16    15    17    1
   17     1    18    1
   18    15    18    1
   19    18    19    1
   20    18    20    1
   21    13    21    1
   22    21    22    1
@<TRIPOS>SUBSTRUCTURE
       1 MOL1            1 RESIDUE      1      MOL     
@<SCITEGIC>MOL_PROPERTY
VConf Rank
SciTegic.value.IntegerValue
301

@<SCITEGIC>MOL_PROPERTY
Conf_Id
SciTegic.value.IntegerValue
41

@<SCITEGIC>MOL_PROPERTY
Delta U+W
SciTegic.value.DoubleValue
-2.114

@<SCITEGIC>MOL_PROPERTY
U+W
SciTegic.value.DoubleValue
4.310

@<SCITEGIC>MOL_PROPERTY
Grad RMS
SciTegic.value.DoubleValue
0.000000

@<SCITEGIC>MOL_PROPERTY
U
SciTegic.value.DoubleValue
6.598

@<SCITEGIC>MOL_PROPERTY
W
SciTegic.value.DoubleValue
-2.289

@<SCITEGIC>MOL_PROPERTY
W(PB)
SciTegic.value.DoubleValue
-4.294

@<SCITEGIC>MOL_PROPERTY
W(SA)
SciTegic.value.DoubleValue
2.005

@<SCITEGIC>MOL_PROPERTY
Valence
SciTegic.value.DoubleValue
12.082

@<SCITEGIC>MOL_PROPERTY
Coulomb
SciTegic.value.DoubleValue
-7.801

@<SCITEGIC>MOL_PROPERTY
VdW
SciTegic.value.DoubleValue
2.317

@<SCITEGIC>MOL_PROPERTY
VdW6
SciTegic.value.DoubleValue
-9.658

@<SCITEGIC>MOL_PROPERTY
VdW12
SciTegic.value.DoubleValue
11.975

@<SCITEGIC>MOL_PROPERTY
Bond
SciTegic.value.DoubleValue
0.267

@<SCITEGIC>MOL_PROPERTY
Angle
SciTegic.value.DoubleValue
3.051

@<SCITEGIC>MOL_PROPERTY
Pdih
SciTegic.value.DoubleValue
8.764

@<SCITEGIC>MOL_PROPERTY
Idih
SciTegic.value.DoubleValue
0.000

@<SCITEGIC>MOL_PROPERTY
Tether
SciTegic.value.DoubleValue
0.000

@<TRIPOS>MOLECULE
guest-5_confgen4.mol2 : confsearch ligand conformer 302
          22          22           1
SMALL
USER_CHARGES
 
@<TRIPOS>ATOM
       1    C1      19.963161   17.891182   22.937711 C.3        1 MOL1        -0.1685
       2    H1      19.864337   16.803185   22.823491 H          1 MOL1         0.0832
       3    H2      20.395144   18.058292   23.934025 H          1 MOL1         0.0832
       4    C2      18.549462   18.507764   22.844620 C.3        1 MOL1        -0.1685
       5    H3      18.161313   18.384776   21.824426 H          1 MOL1         0.0832
       6    H4      17.873776   17.935745   23.494853 H          1 MOL1         0.0832
       7    C3      18.467405   19.995416   23.251291 C.3        1 MOL1        -0.1685
       8    H5      18.651334   20.090096   24.329760 H          1 MOL1         0.0832
       9    H6      17.432921   20.331214   23.098950 H          1 MOL1         0.0832
      10    C4      19.410345   20.947079   22.466188 C.3        1 MOL1        -0.1761
      11    H7      19.282503   20.797718   21.386556 H          1 MOL1         0.0832
      12    H8      19.083220   21.975940   22.663721 H          1 MOL1         0.0832
      13    C5      20.914523   20.867749   22.833866 C.3        1 MOL1         0.1218
      14    H9      21.381807   21.786194   22.449962 H          1 MOL1         0.0789
      15    C6      21.703133   19.688528   22.207229 C.3        1 MOL1        -0.1761
      16    H10     22.189033   20.053810   21.293154 H          1 MOL1         0.0832
      17    H11     22.525680   19.410932   22.879411 H          1 MOL1         0.0832
      18    C7      20.913769   18.408778   21.835687 C.3        1 MOL1        -0.1685
      19    H12     20.351196   18.573967   20.906904 H          1 MOL1         0.0832
      20    H13     21.642611   17.620814   21.602065 H          1 MOL1         0.0832
      21    O1      21.081777   20.858315   24.249089 O.3        1 MOL1        -0.5509
      22    H14     22.045440   20.848135   24.419851 H          1 MOL1         0.3779
@<TRIPOS>BOND
    1     1     2    1
    2     1     3    1
    3     1     4    1
    4     4     5    1
    5     4     6    1
    6     4     7    1
    7     7     8    1
    8     7     9    1
    9     7    10    1
   10    10    11    1
   11    10    12    1
   12    10    13    1
   13    13    14    1
   14    13    15    1
   15    15    16    1
   16    15    17    1
   17     1    18    1
   18    15    18    1
   19    18    19    1
   20    18    20    1
   21    13    21    1
   22    21    22    1
@<TRIPOS>SUBSTRUCTURE
       1 MOL1            1 RESIDUE      1      MOL     
@<SCITEGIC>MOL_PROPERTY
VConf Rank
SciTegic.value.IntegerValue
302

@<SCITEGIC>MOL_PROPERTY
Conf_Id
SciTegic.value.IntegerValue
104

@<SCITEGIC>MOL_PROPERTY
Delta U+W
SciTegic.value.DoubleValue
-1.172

@<SCITEGIC>MOL_PROPERTY
U+W
SciTegic.value.DoubleValue
5.252

@<SCITEGIC>MOL_PROPERTY
Grad RMS
SciTegic.value.DoubleValue
0.000000

@<SCITEGIC>MOL_PROPERTY
U
SciTegic.value.DoubleValue
7.482

@<SCITEGIC>MOL_PROPERTY
W
SciTegic.value.DoubleValue
-2.230

@<SCITEGIC>MOL_PROPERTY
W(PB)
SciTegic.value.DoubleValue
-4.220

@<SCITEGIC>MOL_PROPERTY
W(SA)
SciTegic.value.DoubleValue
1.990

@<SCITEGIC>MOL_PROPERTY
Valence
SciTegic.value.DoubleValue
12.309

@<SCITEGIC>MOL_PROPERTY
Coulomb
SciTegic.value.DoubleValue
-7.084

@<SCITEGIC>MOL_PROPERTY
VdW
SciTegic.value.DoubleValue
2.258

@<SCITEGIC>MOL_PROPERTY
VdW6
SciTegic.value.DoubleValue
-9.770

@<SCITEGIC>MOL_PROPERTY
VdW12
SciTegic.value.DoubleValue
12.028

@<SCITEGIC>MOL_PROPERTY
Bond
SciTegic.value.DoubleValue
0.284

@<SCITEGIC>MOL_PROPERTY
Angle
SciTegic.value.DoubleValue
3.491

@<SCITEGIC>MOL_PROPERTY
Pdih
SciTegic.value.DoubleValue
8.535

@<SCITEGIC>MOL_PROPERTY
Idih
SciTegic.value.DoubleValue
0.000

@<SCITEGIC>MOL_PROPERTY
Tether
SciTegic.value.DoubleValue
0.000

@<TRIPOS>MOLECULE
guest-5_confgen4.mol2 : confsearch ligand conformer 303
          22          22           1
SMALL
USER_CHARGES
 
@<TRIPOS>ATOM
       1    C1      18.679464   20.349089   22.211061 C.3        1 MOL1        -0.1685
       2    H1      18.407346   20.611451   23.242372 H          1 MOL1         0.0832
       3    H2      17.866290   20.729610   21.577901 H          1 MOL1         0.0832
       4    C2      18.741683   18.815244   22.029589 C.3        1 MOL1        -0.1685
       5    H3      17.717573   18.434313   21.914099 H          1 MOL1         0.0832
       6    H4      19.240320   18.581363   21.079853 H          1 MOL1         0.0832
       7    C3      19.410031   18.028842   23.185685 C.3        1 MOL1        -0.1685
       8    H5      19.799308   17.083258   22.783629 H          1 MOL1         0.0832
       9    H6      18.631578   17.740580   23.905299 H          1 MOL1         0.0832
      10    C4      20.535869   18.747588   23.977579 C.3        1 MOL1        -0.1761
      11    H7      20.081895   19.442362   24.696016 H          1 MOL1         0.0832
      12    H8      21.051634   17.996752   24.590142 H          1 MOL1         0.0832
      13    C5      21.599922   19.509508   23.154627 C.3        1 MOL1         0.1218
      14    H9      22.494228   19.606816   23.786789 H          1 MOL1         0.0789
      15    C6      21.157821   20.942797   22.782476 C.3        1 MOL1        -0.1761
      16    H10     20.899113   21.481202   23.703482 H          1 MOL1         0.0832
      17    H11     22.025174   21.470893   22.365273 H          1 MOL1         0.0832
      18    C7      19.981864   21.065859   21.782091 C.3        1 MOL1        -0.1685
      19    H12     19.760959   22.134101   21.652584 H          1 MOL1         0.0832
      20    H13     20.295794   20.707535   20.792379 H          1 MOL1         0.0832
      21    O1      21.939376   18.782651   21.983892 O.3        1 MOL1        -0.5509
      22    H14     21.086467   18.665708   21.520041 H          1 MOL1         0.3779
@<TRIPOS>BOND
    1     1     2    1
    2     1     3    1
    3     1     4    1
    4     4     5    1
    5     4     6    1
    6     4     7    1
    7     7     8    1
    8     7     9    1
    9     7    10    1
   10    10    11    1
   11    10    12    1
   12    10    13    1
   13    13    14    1
   14    13    15    1
   15    15    16    1
   16    15    17    1
   17     1    18    1
   18    15    18    1
   19    18    19    1
   20    18    20    1
   21    13    21    1
   22    21    22    1
@<TRIPOS>SUBSTRUCTURE
       1 MOL1            1 RESIDUE      1      MOL     
@<SCITEGIC>MOL_PROPERTY
VConf Rank
SciTegic.value.IntegerValue
303

@<SCITEGIC>MOL_PROPERTY
Conf_Id
SciTegic.value.IntegerValue
99

@<SCITEGIC>MOL_PROPERTY
Delta U+W
SciTegic.value.DoubleValue
-3.852

@<SCITEGIC>MOL_PROPERTY
U+W
SciTegic.value.DoubleValue
2.572

@<SCITEGIC>MOL_PROPERTY
Grad RMS
SciTegic.value.DoubleValue
0.000000

@<SCITEGIC>MOL_PROPERTY
U
SciTegic.value.DoubleValue
3.922

@<SCITEGIC>MOL_PROPERTY
W
SciTegic.value.DoubleValue
-1.350

@<SCITEGIC>MOL_PROPERTY
W(PB)
SciTegic.value.DoubleValue
-3.345

@<SCITEGIC>MOL_PROPERTY
W(SA)
SciTegic.value.DoubleValue
1.995

@<SCITEGIC>MOL_PROPERTY
Valence
SciTegic.value.DoubleValue
12.571

@<SCITEGIC>MOL_PROPERTY
Coulomb
SciTegic.value.DoubleValue
-10.581

@<SCITEGIC>MOL_PROPERTY
VdW
SciTegic.value.DoubleValue
1.932

@<SCITEGIC>MOL_PROPERTY
VdW6
SciTegic.value.DoubleValue
-10.483

@<SCITEGIC>MOL_PROPERTY
VdW12
SciTegic.value.DoubleValue
12.415

@<SCITEGIC>MOL_PROPERTY
Bond
SciTegic.value.DoubleValue
0.268

@<SCITEGIC>MOL_PROPERTY
Angle
SciTegic.value.DoubleValue
3.728

@<SCITEGIC>MOL_PROPERTY
Pdih
SciTegic.value.DoubleValue
8.575

@<SCITEGIC>MOL_PROPERTY
Idih
SciTegic.value.DoubleValue
0.000

@<SCITEGIC>MOL_PROPERTY
Tether
SciTegic.value.DoubleValue
0.000

@<TRIPOS>MOLECULE
guest-5_confgen4.mol2 : confsearch ligand conformer 304
          22          22           1
SMALL
USER_CHARGES
 
@<TRIPOS>ATOM
       1    C1      21.614506   19.046251   22.344460 C.3        1 MOL1        -0.1685
       2    H1      22.685604   18.967772   22.576584 H          1 MOL1         0.0832
       3    H2      21.477922   18.449145   21.432942 H          1 MOL1         0.0832
       4    C2      21.296557   20.543121   22.057859 C.3        1 MOL1        -0.1685
       5    H3      22.230069   21.112507   22.165772 H          1 MOL1         0.0832
       6    H4      21.005271   20.673636   21.007063 H          1 MOL1         0.0832
       7    C3      20.234260   21.199527   22.976229 C.3        1 MOL1        -0.1685
       8    H5      20.247221   22.283876   22.800887 H          1 MOL1         0.0832
       9    H6      20.531755   21.086546   24.026135 H          1 MOL1         0.0832
      10    C4      18.772924   20.705284   22.789006 C.3        1 MOL1        -0.1761
      11    H7      18.216141   20.924739   23.709101 H          1 MOL1         0.0832
      12    H8      18.297531   21.315789   22.009724 H          1 MOL1         0.0832
      13    C5      18.544530   19.218532   22.420818 C.3        1 MOL1         0.1218
      14    H9      17.472344   19.016876   22.556927 H          1 MOL1         0.0789
      15    C6      19.309997   18.176281   23.272826 C.3        1 MOL1        -0.1761
      16    H10     18.816559   18.096643   24.250025 H          1 MOL1         0.0832
      17    H11     19.172716   17.195712   22.797814 H          1 MOL1         0.0832
      18    C7      20.829398   18.396934   23.512685 C.3        1 MOL1        -0.1685
      19    H12     20.978607   18.981267   24.429123 H          1 MOL1         0.0832
      20    H13     21.280282   17.419549   23.732110 H          1 MOL1         0.0832
      21    O1      18.837262   19.017866   21.047034 O.3        1 MOL1        -0.5509
      22    H14     19.794416   19.208047   20.979061 H          1 MOL1         0.3779
@<TRIPOS>BOND
    1     1     2    1
    2     1     3    1
    3     1     4    1
    4     4     5    1
    5     4     6    1
    6     4     7    1
    7     7     8    1
    8     7     9    1
    9     7    10    1
   10    10    11    1
   11    10    12    1
   12    10    13    1
   13    13    14    1
   14    13    15    1
   15    15    16    1
   16    15    17    1
   17     1    18    1
   18    15    18    1
   19    18    19    1
   20    18    20    1
   21    13    21    1
   22    21    22    1
@<TRIPOS>SUBSTRUCTURE
       1 MOL1            1 RESIDUE      1      MOL     
@<SCITEGIC>MOL_PROPERTY
VConf Rank
SciTegic.value.IntegerValue
304

@<SCITEGIC>MOL_PROPERTY
Conf_Id
SciTegic.value.IntegerValue
98

@<SCITEGIC>MOL_PROPERTY
Delta U+W
SciTegic.value.DoubleValue
0.930

@<SCITEGIC>MOL_PROPERTY
U+W
SciTegic.value.DoubleValue
7.353

@<SCITEGIC>MOL_PROPERTY
Grad RMS
SciTegic.value.DoubleValue
0.000000

@<SCITEGIC>MOL_PROPERTY
U
SciTegic.value.DoubleValue
8.455

@<SCITEGIC>MOL_PROPERTY
W
SciTegic.value.DoubleValue
-1.102

@<SCITEGIC>MOL_PROPERTY
W(PB)
SciTegic.value.DoubleValue
-3.101

@<SCITEGIC>MOL_PROPERTY
W(SA)
SciTegic.value.DoubleValue
2.000

@<SCITEGIC>MOL_PROPERTY
Valence
SciTegic.value.DoubleValue
15.601

@<SCITEGIC>MOL_PROPERTY
Coulomb
SciTegic.value.DoubleValue
-10.573

@<SCITEGIC>MOL_PROPERTY
VdW
SciTegic.value.DoubleValue
3.427

@<SCITEGIC>MOL_PROPERTY
VdW6
SciTegic.value.DoubleValue
-11.360

@<SCITEGIC>MOL_PROPERTY
VdW12
SciTegic.value.DoubleValue
14.787

@<SCITEGIC>MOL_PROPERTY
Bond
SciTegic.value.DoubleValue
0.471

@<SCITEGIC>MOL_PROPERTY
Angle
SciTegic.value.DoubleValue
5.445

@<SCITEGIC>MOL_PROPERTY
Pdih
SciTegic.value.DoubleValue
9.685

@<SCITEGIC>MOL_PROPERTY
Idih
SciTegic.value.DoubleValue
0.000

@<SCITEGIC>MOL_PROPERTY
Tether
SciTegic.value.DoubleValue
0.000

@<TRIPOS>MOLECULE
guest-5_confgen4.mol2 : confsearch ligand conformer 305
          22          22           1
SMALL
USER_CHARGES
 
@<TRIPOS>ATOM
       1    C1      19.957660   17.912085   22.088840 C.3        1 MOL1        -0.1685
       2    H1      20.726704   17.678485   22.836357 H          1 MOL1         0.0832
       3    H2      19.717855   16.949889   21.616204 H          1 MOL1         0.0832
       4    C2      20.545022   18.858318   21.010968 C.3        1 MOL1        -0.1685
       5    H3      21.400574   18.345013   20.551160 H          1 MOL1         0.0832
       6    H4      19.812397   18.996395   20.204234 H          1 MOL1         0.0832
       7    C3      21.026076   20.249963   21.507511 C.3        1 MOL1        -0.1685
       8    H5      20.292178   21.020295   21.237330 H          1 MOL1         0.0832
       9    H6      21.934364   20.517142   20.950499 H          1 MOL1         0.0832
      10    C4      21.331085   20.336270   23.026468 C.3        1 MOL1        -0.1761
      11    H7      22.015527   19.524601   23.302800 H          1 MOL1         0.0832
      12    H8      21.898076   21.258377   23.212549 H          1 MOL1         0.0832
      13    C5      20.094086   20.305903   23.971340 C.3        1 MOL1         0.1218
      14    H9      20.308757   19.601588   24.787994 H          1 MOL1         0.0789
      15    C6      18.752194   19.892170   23.316810 C.3        1 MOL1        -0.1761
      16    H10     17.943935   20.026906   24.047302 H          1 MOL1         0.0832
      17    H11     18.513519   20.580654   22.497290 H          1 MOL1         0.0832
      18    C7      18.687024   18.432984   22.800732 C.3        1 MOL1        -0.1685
      19    H12     18.471758   17.766059   23.646713 H          1 MOL1         0.0832
      20    H13     17.829737   18.342371   22.119909 H          1 MOL1         0.0832
      21    O1      19.916454   21.605606   24.523060 O.3        1 MOL1        -0.5509
      22    H14     19.170273   21.544730   25.155267 H          1 MOL1         0.3779
@<TRIPOS>BOND
    1     1     2    1
    2     1     3    1
    3     1     4    1
    4     4     5    1
    5     4     6    1
    6     4     7    1
    7     7     8    1
    8     7     9    1
    9     7    10    1
   10    10    11    1
   11    10    12    1
   12    10    13    1
   13    13    14    1
   14    13    15    1
   15    15    16    1
   16    15    17    1
   17     1    18    1
   18    15    18    1
   19    18    19    1
   20    18    20    1
   21    13    21    1
   22    21    22    1
@<TRIPOS>SUBSTRUCTURE
       1 MOL1            1 RESIDUE      1      MOL     
@<SCITEGIC>MOL_PROPERTY
VConf Rank
SciTegic.value.IntegerValue
305

@<SCITEGIC>MOL_PROPERTY
Conf_Id
SciTegic.value.IntegerValue
141

@<SCITEGIC>MOL_PROPERTY
Delta U+W
SciTegic.value.DoubleValue
0.000

@<SCITEGIC>MOL_PROPERTY
U+W
SciTegic.value.DoubleValue
6.423

@<SCITEGIC>MOL_PROPERTY
Grad RMS
SciTegic.value.DoubleValue
0.000000

@<SCITEGIC>MOL_PROPERTY
U
SciTegic.value.DoubleValue
8.781

@<SCITEGIC>MOL_PROPERTY
W
SciTegic.value.DoubleValue
-2.358

@<SCITEGIC>MOL_PROPERTY
W(PB)
SciTegic.value.DoubleValue
-4.373

@<SCITEGIC>MOL_PROPERTY
W(SA)
SciTegic.value.DoubleValue
2.015

@<SCITEGIC>MOL_PROPERTY
Valence
SciTegic.value.DoubleValue
13.328

@<SCITEGIC>MOL_PROPERTY
Coulomb
SciTegic.value.DoubleValue
-8.387

@<SCITEGIC>MOL_PROPERTY
VdW
SciTegic.value.DoubleValue
3.840

@<SCITEGIC>MOL_PROPERTY
VdW6
SciTegic.value.DoubleValue
-9.744

@<SCITEGIC>MOL_PROPERTY
VdW12
SciTegic.value.DoubleValue
13.584

@<SCITEGIC>MOL_PROPERTY
Bond
SciTegic.value.DoubleValue
0.436

@<SCITEGIC>MOL_PROPERTY
Angle
SciTegic.value.DoubleValue
3.478

@<SCITEGIC>MOL_PROPERTY
Pdih
SciTegic.value.DoubleValue
9.415

@<SCITEGIC>MOL_PROPERTY
Idih
SciTegic.value.DoubleValue
0.000

@<SCITEGIC>MOL_PROPERTY
Tether
SciTegic.value.DoubleValue
0.000

@<TRIPOS>MOLECULE
guest-5_confgen4.mol2 : confsearch ligand conformer 306
          22          22           1
SMALL
USER_CHARGES
 
@<TRIPOS>ATOM
       1    C1      20.354637   19.143404   21.014439 C.3        1 MOL1        -0.1685
       2    H1      19.672209   19.928922   20.662499 H          1 MOL1         0.0832
       3    H2      20.793871   18.696153   20.112251 H          1 MOL1         0.0832
       4    C2      19.579833   18.030565   21.760712 C.3        1 MOL1        -0.1685
       5    H3      18.958632   17.489180   21.034168 H          1 MOL1         0.0832
       6    H4      20.291779   17.291869   22.153575 H          1 MOL1         0.0832
       7    C3      18.665270   18.519317   22.907457 C.3        1 MOL1        -0.1685
       8    H5      18.228762   17.637854   23.396651 H          1 MOL1         0.0832
       9    H6      17.818460   19.078025   22.485891 H          1 MOL1         0.0832
      10    C4      19.369087   19.383224   23.982393 C.3        1 MOL1        -0.1761
      11    H7      18.687703   19.467084   24.839229 H          1 MOL1         0.0832
      12    H8      20.269344   18.878537   24.356325 H          1 MOL1         0.0832
      13    C5      19.714677   20.801424   23.475539 C.3        1 MOL1         0.1218
      14    H9      18.940229   21.108737   22.758160 H          1 MOL1         0.0789
      15    C6      21.091370   20.917655   22.782355 C.3        1 MOL1        -0.1761
      16    H10     21.089785   21.845725   22.196238 H          1 MOL1         0.0832
      17    H11     21.872228   21.044413   23.544131 H          1 MOL1         0.0832
      18    C7      21.503425   19.745582   21.856882 C.3        1 MOL1        -0.1685
      19    H12     22.289954   20.107424   21.180667 H          1 MOL1         0.0832
      20    H13     21.972152   18.952381   22.455078 H          1 MOL1         0.0832
      21    O1      19.699637   21.698872   24.578979 O.3        1 MOL1        -0.5509
      22    H14     18.796016   21.666162   24.957155 H          1 MOL1         0.3779
@<TRIPOS>BOND
    1     1     2    1
    2     1     3    1
    3     1     4    1
    4     4     5    1
    5     4     6    1
    6     4     7    1
    7     7     8    1
    8     7     9    1
    9     7    10    1
   10    10    11    1
   11    10    12    1
   12    10    13    1
   13    13    14    1
   14    13    15    1
   15    15    16    1
   16    15    17    1
   17     1    18    1
   18    15    18    1
   19    18    19    1
   20    18    20    1
   21    13    21    1
   22    21    22    1
@<TRIPOS>SUBSTRUCTURE
       1 MOL1            1 RESIDUE      1      MOL     
@<SCITEGIC>MOL_PROPERTY
VConf Rank
SciTegic.value.IntegerValue
306

@<SCITEGIC>MOL_PROPERTY
Conf_Id
SciTegic.value.IntegerValue
144

@<SCITEGIC>MOL_PROPERTY
Delta U+W
SciTegic.value.DoubleValue
-3.291

@<SCITEGIC>MOL_PROPERTY
U+W
SciTegic.value.DoubleValue
3.132

@<SCITEGIC>MOL_PROPERTY
Grad RMS
SciTegic.value.DoubleValue
0.000000

@<SCITEGIC>MOL_PROPERTY
U
SciTegic.value.DoubleValue
5.411

@<SCITEGIC>MOL_PROPERTY
W
SciTegic.value.DoubleValue
-2.279

@<SCITEGIC>MOL_PROPERTY
W(PB)
SciTegic.value.DoubleValue
-4.300

@<SCITEGIC>MOL_PROPERTY
W(SA)
SciTegic.value.DoubleValue
2.021

@<SCITEGIC>MOL_PROPERTY
Valence
SciTegic.value.DoubleValue
11.909

@<SCITEGIC>MOL_PROPERTY
Coulomb
SciTegic.value.DoubleValue
-8.733

@<SCITEGIC>MOL_PROPERTY
VdW
SciTegic.value.DoubleValue
2.236

@<SCITEGIC>MOL_PROPERTY
VdW6
SciTegic.value.DoubleValue
-8.936

@<SCITEGIC>MOL_PROPERTY
VdW12
SciTegic.value.DoubleValue
11.172

@<SCITEGIC>MOL_PROPERTY
Bond
SciTegic.value.DoubleValue
0.223

@<SCITEGIC>MOL_PROPERTY
Angle
SciTegic.value.DoubleValue
2.457

@<SCITEGIC>MOL_PROPERTY
Pdih
SciTegic.value.DoubleValue
9.228

@<SCITEGIC>MOL_PROPERTY
Idih
SciTegic.value.DoubleValue
0.000

@<SCITEGIC>MOL_PROPERTY
Tether
SciTegic.value.DoubleValue
0.000

@<TRIPOS>MOLECULE
guest-5_confgen4.mol2 : confsearch ligand conformer 307
          22          22           1
SMALL
USER_CHARGES
 
@<TRIPOS>ATOM
       1    C1      20.071152   17.832661   22.491050 C.3        1 MOL1        -0.1685
       2    H1      19.976061   16.746301   22.623983 H          1 MOL1         0.0832
       3    H2      20.715211   17.976127   21.612821 H          1 MOL1         0.0832
       4    C2      20.734367   18.413807   23.761675 C.3        1 MOL1        -0.1685
       5    H3      19.971366   18.558892   24.538563 H          1 MOL1         0.0832
       6    H4      21.431089   17.669475   24.170999 H          1 MOL1         0.0832
       7    C3      21.516533   19.732520   23.549227 C.3        1 MOL1        -0.1685
       8    H5      22.525648   19.494929   23.185701 H          1 MOL1         0.0832
       9    H6      21.657161   20.208752   24.529250 H          1 MOL1         0.0832
      10    C4      20.882836   20.757788   22.576912 C.3        1 MOL1        -0.1761
      11    H7      21.341288   21.736107   22.774861 H          1 MOL1         0.0832
      12    H8      21.164203   20.500054   21.547689 H          1 MOL1         0.0832
      13    C5      19.345385   20.880442   22.670697 C.3        1 MOL1         0.1218
      14    H9      19.027062   20.732720   23.712482 H          1 MOL1         0.0789
      15    C6      18.613619   19.871330   21.756810 C.3        1 MOL1        -0.1761
      16    H10     17.560540   20.171714   21.673584 H          1 MOL1         0.0832
      17    H11     19.026880   19.930044   20.741501 H          1 MOL1         0.0832
      18    C7      18.654378   18.401040   22.236708 C.3        1 MOL1        -0.1685
      19    H12     18.051183   18.299134   23.149230 H          1 MOL1         0.0832
      20    H13     18.158269   17.779039   21.479227 H          1 MOL1         0.0832
      21    O1      18.975682   22.189637   22.258945 O.3        1 MOL1        -0.5509
      22    H14     19.276160   22.283114   21.331511 H          1 MOL1         0.3779
@<TRIPOS>BOND
    1     1     2    1
    2     1     3    1
    3     1     4    1
    4     4     5    1
    5     4     6    1
    6     4     7    1
    7     7     8    1
    8     7     9    1
    9     7    10    1
   10    10    11    1
   11    10    12    1
   12    10    13    1
   13    13    14    1
   14    13    15    1
   15    15    16    1
   16    15    17    1
   17     1    18    1
   18    15    18    1
   19    18    19    1
   20    18    20    1
   21    13    21    1
   22    21    22    1
@<TRIPOS>SUBSTRUCTURE
       1 MOL1            1 RESIDUE      1      MOL     
@<SCITEGIC>MOL_PROPERTY
VConf Rank
SciTegic.value.IntegerValue
307

@<SCITEGIC>MOL_PROPERTY
Conf_Id
SciTegic.value.IntegerValue
76

@<SCITEGIC>MOL_PROPERTY
Delta U+W
SciTegic.value.DoubleValue
-3.175

@<SCITEGIC>MOL_PROPERTY
U+W
SciTegic.value.DoubleValue
3.248

@<SCITEGIC>MOL_PROPERTY
Grad RMS
SciTegic.value.DoubleValue
0.000000

@<SCITEGIC>MOL_PROPERTY
U
SciTegic.value.DoubleValue
5.336

@<SCITEGIC>MOL_PROPERTY
W
SciTegic.value.DoubleValue
-2.088

@<SCITEGIC>MOL_PROPERTY
W(PB)
SciTegic.value.DoubleValue
-4.098

@<SCITEGIC>MOL_PROPERTY
W(SA)
SciTegic.value.DoubleValue
2.010

@<SCITEGIC>MOL_PROPERTY
Valence
SciTegic.value.DoubleValue
12.390

@<SCITEGIC>MOL_PROPERTY
Coulomb
SciTegic.value.DoubleValue
-9.270

@<SCITEGIC>MOL_PROPERTY
VdW
SciTegic.value.DoubleValue
2.216

@<SCITEGIC>MOL_PROPERTY
VdW6
SciTegic.value.DoubleValue
-8.967

@<SCITEGIC>MOL_PROPERTY
VdW12
SciTegic.value.DoubleValue
11.183

@<SCITEGIC>MOL_PROPERTY
Bond
SciTegic.value.DoubleValue
0.218

@<SCITEGIC>MOL_PROPERTY
Angle
SciTegic.value.DoubleValue
2.426

@<SCITEGIC>MOL_PROPERTY
Pdih
SciTegic.value.DoubleValue
9.745

@<SCITEGIC>MOL_PROPERTY
Idih
SciTegic.value.DoubleValue
0.000

@<SCITEGIC>MOL_PROPERTY
Tether
SciTegic.value.DoubleValue
0.000

@<TRIPOS>MOLECULE
guest-5_confgen4.mol2 : confsearch ligand conformer 308
          22          22           1
SMALL
USER_CHARGES
 
@<TRIPOS>ATOM
       1    C1      20.588022   21.024274   21.640578 C.3        1 MOL1        -0.1685
       2    H1      21.458487   21.676241   21.795537 H          1 MOL1         0.0832
       3    H2      20.130187   21.357060   20.699061 H          1 MOL1         0.0832
       4    C2      19.589223   21.267413   22.797280 C.3        1 MOL1        -0.1685
       5    H3      20.143364   21.446208   23.728644 H          1 MOL1         0.0832
       6    H4      19.052241   22.203280   22.590914 H          1 MOL1         0.0832
       7    C3      18.558901   20.136031   23.020784 C.3        1 MOL1        -0.1685
       8    H5      18.234757   19.704194   22.064080 H          1 MOL1         0.0832
       9    H6      17.661637   20.576853   23.475631 H          1 MOL1         0.0832
      10    C4      19.078223   19.031665   23.976169 C.3        1 MOL1        -0.1761
      11    H7      19.461039   19.498343   24.892780 H          1 MOL1         0.0832
      12    H8      18.227490   18.414177   24.292988 H          1 MOL1         0.0832
      13    C5      20.163725   18.090445   23.406180 C.3        1 MOL1         0.1218
      14    H9      20.545536   17.498755   24.250704 H          1 MOL1         0.0789
      15    C6      21.379842   18.801250   22.760965 C.3        1 MOL1        -0.1761
      16    H10     21.846109   19.476346   23.490155 H          1 MOL1         0.0832
      17    H11     22.134320   18.034343   22.543240 H          1 MOL1         0.0832
      18    C7      21.074614   19.568130   21.447973 C.3        1 MOL1        -0.1685
      19    H12     21.985379   19.595483   20.834637 H          1 MOL1         0.0832
      20    H13     20.338546   19.014274   20.850572 H          1 MOL1         0.0832
      21    O1      19.566961   17.196343   22.472116 O.3        1 MOL1        -0.5509
      22    H14     20.293619   16.656699   22.099239 H          1 MOL1         0.3779
@<TRIPOS>BOND
    1     1     2    1
    2     1     3    1
    3     1     4    1
    4     4     5    1
    5     4     6    1
    6     4     7    1
    7     7     8    1
    8     7     9    1
    9     7    10    1
   10    10    11    1
   11    10    12    1
   12    10    13    1
   13    13    14    1
   14    13    15    1
   15    15    16    1
   16    15    17    1
   17     1    18    1
   18    15    18    1
   19    18    19    1
   20    18    20    1
   21    13    21    1
   22    21    22    1
@<TRIPOS>SUBSTRUCTURE
       1 MOL1            1 RESIDUE      1      MOL     
@<SCITEGIC>MOL_PROPERTY
VConf Rank
SciTegic.value.IntegerValue
308

@<SCITEGIC>MOL_PROPERTY
Conf_Id
SciTegic.value.IntegerValue
95

@<SCITEGIC>MOL_PROPERTY
Delta U+W
SciTegic.value.DoubleValue
-2.289

@<SCITEGIC>MOL_PROPERTY
U+W
SciTegic.value.DoubleValue
4.134

@<SCITEGIC>MOL_PROPERTY
Grad RMS
SciTegic.value.DoubleValue
0.000000

@<SCITEGIC>MOL_PROPERTY
U
SciTegic.value.DoubleValue
6.373

@<SCITEGIC>MOL_PROPERTY
W
SciTegic.value.DoubleValue
-2.240

@<SCITEGIC>MOL_PROPERTY
W(PB)
SciTegic.value.DoubleValue
-4.254

@<SCITEGIC>MOL_PROPERTY
W(SA)
SciTegic.value.DoubleValue
2.015

@<SCITEGIC>MOL_PROPERTY
Valence
SciTegic.value.DoubleValue
12.093

@<SCITEGIC>MOL_PROPERTY
Coulomb
SciTegic.value.DoubleValue
-8.058

@<SCITEGIC>MOL_PROPERTY
VdW
SciTegic.value.DoubleValue
2.339

@<SCITEGIC>MOL_PROPERTY
VdW6
SciTegic.value.DoubleValue
-9.683

@<SCITEGIC>MOL_PROPERTY
VdW12
SciTegic.value.DoubleValue
12.022

@<SCITEGIC>MOL_PROPERTY
Bond
SciTegic.value.DoubleValue
0.268

@<SCITEGIC>MOL_PROPERTY
Angle
SciTegic.value.DoubleValue
3.005

@<SCITEGIC>MOL_PROPERTY
Pdih
SciTegic.value.DoubleValue
8.820

@<SCITEGIC>MOL_PROPERTY
Idih
SciTegic.value.DoubleValue
0.000

@<SCITEGIC>MOL_PROPERTY
Tether
SciTegic.value.DoubleValue
0.000

@<TRIPOS>MOLECULE
guest-5_confgen4.mol2 : confsearch ligand conformer 309
          22          22           1
SMALL
USER_CHARGES
 
@<TRIPOS>ATOM
       1    C1      18.656645   19.735157   21.397355 C.3        1 MOL1        -0.1685
       2    H1      18.156066   18.908778   20.874600 H          1 MOL1         0.0832
       3    H2      18.166980   20.652280   21.042526 H          1 MOL1         0.0832
       4    C2      20.140282   19.757448   20.958431 C.3        1 MOL1        -0.1685
       5    H3      20.495263   18.727779   20.816127 H          1 MOL1         0.0832
       6    H4      20.193533   20.225781   19.966147 H          1 MOL1         0.0832
       7    C3      21.096422   20.503704   21.917813 C.3        1 MOL1        -0.1685
       8    H5      20.612467   21.394464   22.341080 H          1 MOL1         0.0832
       9    H6      21.949619   20.870001   21.331035 H          1 MOL1         0.0832
      10    C4      21.651947   19.589160   23.038665 C.3        1 MOL1        -0.1761
      11    H7      22.050362   18.670885   22.588184 H          1 MOL1         0.0832
      12    H8      22.515534   20.085064   23.500488 H          1 MOL1         0.0832
      13    C5      20.658019   19.200408   24.157018 C.3        1 MOL1         0.1218
      14    H9      21.148242   18.423842   24.761771 H          1 MOL1         0.0789
      15    C6      19.312234   18.610974   23.665320 C.3        1 MOL1        -0.1761
      16    H10     19.496019   17.726039   23.042743 H          1 MOL1         0.0832
      17    H11     18.774376   18.248201   24.550720 H          1 MOL1         0.0832
      18    C7      18.389986   19.607872   22.916257 C.3        1 MOL1        -0.1685
      19    H12     17.346726   19.291842   23.050231 H          1 MOL1         0.0832
      20    H13     18.454576   20.599377   23.383553 H          1 MOL1         0.0832
      21    O1      20.421635   20.329735   24.992265 O.3        1 MOL1        -0.5509
      22    H14     21.299401   20.671027   25.259161 H          1 MOL1         0.3779
@<TRIPOS>BOND
    1     1     2    1
    2     1     3    1
    3     1     4    1
    4     4     5    1
    5     4     6    1
    6     4     7    1
    7     7     8    1
    8     7     9    1
    9     7    10    1
   10    10    11    1
   11    10    12    1
   12    10    13    1
   13    13    14    1
   14    13    15    1
   15    15    16    1
   16    15    17    1
   17     1    18    1
   18    15    18    1
   19    18    19    1
   20    18    20    1
   21    13    21    1
   22    21    22    1
@<TRIPOS>SUBSTRUCTURE
       1 MOL1            1 RESIDUE      1      MOL     
@<SCITEGIC>MOL_PROPERTY
VConf Rank
SciTegic.value.IntegerValue
309

@<SCITEGIC>MOL_PROPERTY
Conf_Id
SciTegic.value.IntegerValue
41

@<SCITEGIC>MOL_PROPERTY
Delta U+W
SciTegic.value.DoubleValue
-2.114

@<SCITEGIC>MOL_PROPERTY
U+W
SciTegic.value.DoubleValue
4.310

@<SCITEGIC>MOL_PROPERTY
Grad RMS
SciTegic.value.DoubleValue
0.000000

@<SCITEGIC>MOL_PROPERTY
U
SciTegic.value.DoubleValue
6.598

@<SCITEGIC>MOL_PROPERTY
W
SciTegic.value.DoubleValue
-2.289

@<SCITEGIC>MOL_PROPERTY
W(PB)
SciTegic.value.DoubleValue
-4.294

@<SCITEGIC>MOL_PROPERTY
W(SA)
SciTegic.value.DoubleValue
2.005

@<SCITEGIC>MOL_PROPERTY
Valence
SciTegic.value.DoubleValue
12.082

@<SCITEGIC>MOL_PROPERTY
Coulomb
SciTegic.value.DoubleValue
-7.801

@<SCITEGIC>MOL_PROPERTY
VdW
SciTegic.value.DoubleValue
2.317

@<SCITEGIC>MOL_PROPERTY
VdW6
SciTegic.value.DoubleValue
-9.658

@<SCITEGIC>MOL_PROPERTY
VdW12
SciTegic.value.DoubleValue
11.975

@<SCITEGIC>MOL_PROPERTY
Bond
SciTegic.value.DoubleValue
0.267

@<SCITEGIC>MOL_PROPERTY
Angle
SciTegic.value.DoubleValue
3.051

@<SCITEGIC>MOL_PROPERTY
Pdih
SciTegic.value.DoubleValue
8.764

@<SCITEGIC>MOL_PROPERTY
Idih
SciTegic.value.DoubleValue
0.000

@<SCITEGIC>MOL_PROPERTY
Tether
SciTegic.value.DoubleValue
0.000

@<TRIPOS>MOLECULE
guest-5_confgen4.mol2 : confsearch ligand conformer 310
          22          22           1
SMALL
USER_CHARGES
 
@<TRIPOS>ATOM
       1    C1      21.630047   20.162511   22.750344 C.3        1 MOL1        -0.1685
       2    H1      22.639474   20.498428   23.023779 H          1 MOL1         0.0832
       3    H2      21.617667   20.084653   21.654460 H          1 MOL1         0.0832
       4    C2      20.627006   21.233923   23.233429 C.3        1 MOL1        -0.1685
       5    H3      20.609413   21.252327   24.331579 H          1 MOL1         0.0832
       6    H4      20.991817   22.221948   22.921531 H          1 MOL1         0.0832
       7    C3      19.189089   21.058275   22.697927 C.3        1 MOL1        -0.1685
       8    H5      19.175626   21.251162   21.616954 H          1 MOL1         0.0832
       9    H6      18.563635   21.842919   23.144321 H          1 MOL1         0.0832
      10    C4      18.535940   19.682295   23.000022 C.3        1 MOL1        -0.1761
      11    H7      18.617994   19.453172   24.070081 H          1 MOL1         0.0832
      12    H8      17.460992   19.773527   22.798158 H          1 MOL1         0.0832
      13    C5      19.057425   18.485092   22.164086 C.3        1 MOL1         0.1218
      14    H9      18.306460   17.686822   22.254057 H          1 MOL1         0.0789
      15    C6      20.401048   17.867521   22.631442 C.3        1 MOL1        -0.1761
      16    H10     20.173003   17.010700   23.278679 H          1 MOL1         0.0832
      17    H11     20.920553   17.442054   21.762785 H          1 MOL1         0.0832
      18    C7      21.387382   18.781992   23.399418 C.3        1 MOL1        -0.1685
      19    H12     21.045407   18.913000   24.434939 H          1 MOL1         0.0832
      20    H13     22.347980   18.254015   23.471328 H          1 MOL1         0.0832
      21    O1      19.146065   18.840023   20.786738 O.3        1 MOL1        -0.5509
      22    H14     19.439864   18.039271   20.306751 H          1 MOL1         0.3779
@<TRIPOS>BOND
    1     1     2    1
    2     1     3    1
    3     1     4    1
    4     4     5    1
    5     4     6    1
    6     4     7    1
    7     7     8    1
    8     7     9    1
    9     7    10    1
   10    10    11    1
   11    10    12    1
   12    10    13    1
   13    13    14    1
   14    13    15    1
   15    15    16    1
   16    15    17    1
   17     1    18    1
   18    15    18    1
   19    18    19    1
   20    18    20    1
   21    13    21    1
   22    21    22    1
@<TRIPOS>SUBSTRUCTURE
       1 MOL1            1 RESIDUE      1      MOL     
@<SCITEGIC>MOL_PROPERTY
VConf Rank
SciTegic.value.IntegerValue
310

@<SCITEGIC>MOL_PROPERTY
Conf_Id
SciTegic.value.IntegerValue
104

@<SCITEGIC>MOL_PROPERTY
Delta U+W
SciTegic.value.DoubleValue
-1.172

@<SCITEGIC>MOL_PROPERTY
U+W
SciTegic.value.DoubleValue
5.252

@<SCITEGIC>MOL_PROPERTY
Grad RMS
SciTegic.value.DoubleValue
0.000000

@<SCITEGIC>MOL_PROPERTY
U
SciTegic.value.DoubleValue
7.482

@<SCITEGIC>MOL_PROPERTY
W
SciTegic.value.DoubleValue
-2.230

@<SCITEGIC>MOL_PROPERTY
W(PB)
SciTegic.value.DoubleValue
-4.220

@<SCITEGIC>MOL_PROPERTY
W(SA)
SciTegic.value.DoubleValue
1.990

@<SCITEGIC>MOL_PROPERTY
Valence
SciTegic.value.DoubleValue
12.309

@<SCITEGIC>MOL_PROPERTY
Coulomb
SciTegic.value.DoubleValue
-7.084

@<SCITEGIC>MOL_PROPERTY
VdW
SciTegic.value.DoubleValue
2.258

@<SCITEGIC>MOL_PROPERTY
VdW6
SciTegic.value.DoubleValue
-9.770

@<SCITEGIC>MOL_PROPERTY
VdW12
SciTegic.value.DoubleValue
12.028

@<SCITEGIC>MOL_PROPERTY
Bond
SciTegic.value.DoubleValue
0.284

@<SCITEGIC>MOL_PROPERTY
Angle
SciTegic.value.DoubleValue
3.491

@<SCITEGIC>MOL_PROPERTY
Pdih
SciTegic.value.DoubleValue
8.535

@<SCITEGIC>MOL_PROPERTY
Idih
SciTegic.value.DoubleValue
0.000

@<SCITEGIC>MOL_PROPERTY
Tether
SciTegic.value.DoubleValue
0.000

@<TRIPOS>MOLECULE
guest-5_confgen4.mol2 : confsearch ligand conformer 311
          22          22           1
SMALL
USER_CHARGES
 
@<TRIPOS>ATOM
       1    C1      18.603463   19.966309   22.013283 C.3        1 MOL1        -0.1685
       2    H1      18.836499   19.481860   21.055428 H          1 MOL1         0.0832
       3    H2      17.597230   20.392320   21.899491 H          1 MOL1         0.0832
       4    C2      19.580551   21.130432   22.295420 C.3        1 MOL1        -0.1685
       5    H3      19.260612   22.005346   21.712829 H          1 MOL1         0.0832
       6    H4      19.485993   21.438283   23.345003 H          1 MOL1         0.0832
       7    C3      21.067672   20.856040   21.956516 C.3        1 MOL1        -0.1685
       8    H5      21.692884   21.509390   22.580662 H          1 MOL1         0.0832
       9    H6      21.253219   21.176972   20.922348 H          1 MOL1         0.0832
      10    C4      21.569375   19.392513   22.089124 C.3        1 MOL1        -0.1761
      11    H7      21.250251   18.822468   21.206987 H          1 MOL1         0.0832
      12    H8      22.666037   19.404750   22.042384 H          1 MOL1         0.0832
      13    C5      21.151268   18.616845   23.359363 C.3        1 MOL1         0.1218
      14    H9      21.873277   17.798887   23.495483 H          1 MOL1         0.0789
      15    C6      19.756026   17.964598   23.232306 C.3        1 MOL1        -0.1761
      16    H10     19.749576   17.318251   22.345032 H          1 MOL1         0.0832
      17    H11     19.613336   17.292432   24.088504 H          1 MOL1         0.0832
      18    C7      18.546072   18.928716   23.159637 C.3        1 MOL1        -0.1685
      19    H12     17.639721   18.321679   23.030234 H          1 MOL1         0.0832
      20    H13     18.421497   19.443213   24.122057 H          1 MOL1         0.0832
      21    O1      21.193674   19.463797   24.497363 O.3        1 MOL1        -0.5509
      22    H14     20.595477   20.202422   24.267408 H          1 MOL1         0.3779
@<TRIPOS>BOND
    1     1     2    1
    2     1     3    1
    3     1     4    1
    4     4     5    1
    5     4     6    1
    6     4     7    1
    7     7     8    1
    8     7     9    1
    9     7    10    1
   10    10    11    1
   11    10    12    1
   12    10    13    1
   13    13    14    1
   14    13    15    1
   15    15    16    1
   16    15    17    1
   17     1    18    1
   18    15    18    1
   19    18    19    1
   20    18    20    1
   21    13    21    1
   22    21    22    1
@<TRIPOS>SUBSTRUCTURE
       1 MOL1            1 RESIDUE      1      MOL     
@<SCITEGIC>MOL_PROPERTY
VConf Rank
SciTegic.value.IntegerValue
311

@<SCITEGIC>MOL_PROPERTY
Conf_Id
SciTegic.value.IntegerValue
99

@<SCITEGIC>MOL_PROPERTY
Delta U+W
SciTegic.value.DoubleValue
-3.852

@<SCITEGIC>MOL_PROPERTY
U+W
SciTegic.value.DoubleValue
2.572

@<SCITEGIC>MOL_PROPERTY
Grad RMS
SciTegic.value.DoubleValue
0.000000

@<SCITEGIC>MOL_PROPERTY
U
SciTegic.value.DoubleValue
3.922

@<SCITEGIC>MOL_PROPERTY
W
SciTegic.value.DoubleValue
-1.350

@<SCITEGIC>MOL_PROPERTY
W(PB)
SciTegic.value.DoubleValue
-3.345

@<SCITEGIC>MOL_PROPERTY
W(SA)
SciTegic.value.DoubleValue
1.995

@<SCITEGIC>MOL_PROPERTY
Valence
SciTegic.value.DoubleValue
12.571

@<SCITEGIC>MOL_PROPERTY
Coulomb
SciTegic.value.DoubleValue
-10.581

@<SCITEGIC>MOL_PROPERTY
VdW
SciTegic.value.DoubleValue
1.932

@<SCITEGIC>MOL_PROPERTY
VdW6
SciTegic.value.DoubleValue
-10.483

@<SCITEGIC>MOL_PROPERTY
VdW12
SciTegic.value.DoubleValue
12.415

@<SCITEGIC>MOL_PROPERTY
Bond
SciTegic.value.DoubleValue
0.268

@<SCITEGIC>MOL_PROPERTY
Angle
SciTegic.value.DoubleValue
3.728

@<SCITEGIC>MOL_PROPERTY
Pdih
SciTegic.value.DoubleValue
8.575

@<SCITEGIC>MOL_PROPERTY
Idih
SciTegic.value.DoubleValue
0.000

@<SCITEGIC>MOL_PROPERTY
Tether
SciTegic.value.DoubleValue
0.000

@<TRIPOS>MOLECULE
guest-5_confgen4.mol2 : confsearch ligand conformer 312
          22          22           1
SMALL
USER_CHARGES
 
@<TRIPOS>ATOM
       1    C1      18.500729   19.390574   23.188035 C.3        1 MOL1        -0.1685
       2    H1      17.431253   19.640060   23.152396 H          1 MOL1         0.0832
       3    H2      18.578955   18.585360   23.930710 H          1 MOL1         0.0832
       4    C2      19.268969   20.651702   23.681201 C.3        1 MOL1        -0.1685
       5    H3      18.531995   21.446992   23.859175 H          1 MOL1         0.0832
       6    H4      19.720769   20.459488   24.663537 H          1 MOL1         0.0832
       7    C3      20.344618   21.212123   22.715977 C.3        1 MOL1        -0.1685
       8    H5      20.666013   22.194424   23.088154 H          1 MOL1         0.0832
       9    H6      19.892066   21.422181   21.738919 H          1 MOL1         0.0832
      10    C4      21.614460   20.336235   22.528486 C.3        1 MOL1        -0.1761
      11    H7      22.084940   20.613687   21.576430 H          1 MOL1         0.0832
      12    H8      22.342857   20.611238   23.302959 H          1 MOL1         0.0832
      13    C5      21.453590   18.796453   22.565222 C.3        1 MOL1         0.1218
      14    H9      22.395490   18.367982   22.193723 H          1 MOL1         0.0789
      15    C6      20.316655   18.205402   21.695635 C.3        1 MOL1        -0.1761
      16    H10     20.633828   18.230782   20.645160 H          1 MOL1         0.0832
      17    H11     20.228366   17.139863   21.946290 H          1 MOL1         0.0832
      18    C7      18.906410   18.850835   21.792735 C.3        1 MOL1        -0.1685
      19    H12     18.811897   19.648354   21.045342 H          1 MOL1         0.0832
      20    H13     18.169666   18.096103   21.485630 H          1 MOL1         0.0832
      21    O1      21.298654   18.365853   23.908286 O.3        1 MOL1        -0.5509
      22    H14     20.453691   18.770208   24.190185 H          1 MOL1         0.3779
@<TRIPOS>BOND
    1     1     2    1
    2     1     3    1
    3     1     4    1
    4     4     5    1
    5     4     6    1
    6     4     7    1
    7     7     8    1
    8     7     9    1
    9     7    10    1
   10    10    11    1
   11    10    12    1
   12    10    13    1
   13    13    14    1
   14    13    15    1
   15    15    16    1
   16    15    17    1
   17     1    18    1
   18    15    18    1
   19    18    19    1
   20    18    20    1
   21    13    21    1
   22    21    22    1
@<TRIPOS>SUBSTRUCTURE
       1 MOL1            1 RESIDUE      1      MOL     
@<SCITEGIC>MOL_PROPERTY
VConf Rank
SciTegic.value.IntegerValue
312

@<SCITEGIC>MOL_PROPERTY
Conf_Id
SciTegic.value.IntegerValue
98

@<SCITEGIC>MOL_PROPERTY
Delta U+W
SciTegic.value.DoubleValue
0.930

@<SCITEGIC>MOL_PROPERTY
U+W
SciTegic.value.DoubleValue
7.353

@<SCITEGIC>MOL_PROPERTY
Grad RMS
SciTegic.value.DoubleValue
0.000000

@<SCITEGIC>MOL_PROPERTY
U
SciTegic.value.DoubleValue
8.455

@<SCITEGIC>MOL_PROPERTY
W
SciTegic.value.DoubleValue
-1.102

@<SCITEGIC>MOL_PROPERTY
W(PB)
SciTegic.value.DoubleValue
-3.101

@<SCITEGIC>MOL_PROPERTY
W(SA)
SciTegic.value.DoubleValue
2.000

@<SCITEGIC>MOL_PROPERTY
Valence
SciTegic.value.DoubleValue
15.601

@<SCITEGIC>MOL_PROPERTY
Coulomb
SciTegic.value.DoubleValue
-10.573

@<SCITEGIC>MOL_PROPERTY
VdW
SciTegic.value.DoubleValue
3.427

@<SCITEGIC>MOL_PROPERTY
VdW6
SciTegic.value.DoubleValue
-11.360

@<SCITEGIC>MOL_PROPERTY
VdW12
SciTegic.value.DoubleValue
14.787

@<SCITEGIC>MOL_PROPERTY
Bond
SciTegic.value.DoubleValue
0.471

@<SCITEGIC>MOL_PROPERTY
Angle
SciTegic.value.DoubleValue
5.445

@<SCITEGIC>MOL_PROPERTY
Pdih
SciTegic.value.DoubleValue
9.685

@<SCITEGIC>MOL_PROPERTY
Idih
SciTegic.value.DoubleValue
0.000

@<SCITEGIC>MOL_PROPERTY
Tether
SciTegic.value.DoubleValue
0.000

@<TRIPOS>MOLECULE
guest-5_confgen4.mol2 : confsearch ligand conformer 313
          22          22           1
SMALL
USER_CHARGES
 
@<TRIPOS>ATOM
       1    C1      19.360241   19.714017   21.076391 C.3        1 MOL1        -0.1685
       2    H1      19.072309   18.656273   21.131654 H          1 MOL1         0.0832
       3    H2      18.968937   20.066030   20.112192 H          1 MOL1         0.0832
       4    C2      20.905183   19.836063   21.055952 C.3        1 MOL1        -0.1685
       5    H3      21.269148   19.280808   20.180683 H          1 MOL1         0.0832
       6    H4      21.189065   20.883040   20.883109 H          1 MOL1         0.0832
       7    C3      21.652550   19.304839   22.310500 C.3        1 MOL1        -0.1685
       8    H5      21.975842   20.144355   22.939556 H          1 MOL1         0.0832
       9    H6      22.583519   18.826287   21.977455 H          1 MOL1         0.0832
      10    C4      20.853084   18.291286   23.171473 C.3        1 MOL1        -0.1761
      11    H7      20.478347   17.487386   22.525762 H          1 MOL1         0.0832
      12    H8      21.551742   17.796972   23.859891 H          1 MOL1         0.0832
      13    C5      19.669230   18.881362   23.992552 C.3        1 MOL1         0.1218
      14    H9      18.799980   18.222059   23.855472 H          1 MOL1         0.0789
      15    C6      19.243418   20.324895   23.624915 C.3        1 MOL1        -0.1761
      16    H10     18.491414   20.668494   24.347056 H          1 MOL1         0.0832
      17    H11     20.094110   21.004806   23.753877 H          1 MOL1         0.0832
      18    C7      18.652244   20.501422   22.203944 C.3        1 MOL1        -0.1685
      19    H12     17.595622   20.201182   22.218752 H          1 MOL1         0.0832
      20    H13     18.658004   21.571271   21.954822 H          1 MOL1         0.0832
      21    O1      20.031037   18.881061   25.368877 O.3        1 MOL1        -0.5509
      22    H14     19.250227   19.201893   25.866453 H          1 MOL1         0.3779
@<TRIPOS>BOND
    1     1     2    1
    2     1     3    1
    3     1     4    1
    4     4     5    1
    5     4     6    1
    6     4     7    1
    7     7     8    1
    8     7     9    1
    9     7    10    1
   10    10    11    1
   11    10    12    1
   12    10    13    1
   13    13    14    1
   14    13    15    1
   15    15    16    1
   16    15    17    1
   17     1    18    1
   18    15    18    1
   19    18    19    1
   20    18    20    1
   21    13    21    1
   22    21    22    1
@<TRIPOS>SUBSTRUCTURE
       1 MOL1            1 RESIDUE      1      MOL     
@<SCITEGIC>MOL_PROPERTY
VConf Rank
SciTegic.value.IntegerValue
313

@<SCITEGIC>MOL_PROPERTY
Conf_Id
SciTegic.value.IntegerValue
141

@<SCITEGIC>MOL_PROPERTY
Delta U+W
SciTegic.value.DoubleValue
0.000

@<SCITEGIC>MOL_PROPERTY
U+W
SciTegic.value.DoubleValue
6.423

@<SCITEGIC>MOL_PROPERTY
Grad RMS
SciTegic.value.DoubleValue
0.000000

@<SCITEGIC>MOL_PROPERTY
U
SciTegic.value.DoubleValue
8.781

@<SCITEGIC>MOL_PROPERTY
W
SciTegic.value.DoubleValue
-2.358

@<SCITEGIC>MOL_PROPERTY
W(PB)
SciTegic.value.DoubleValue
-4.373

@<SCITEGIC>MOL_PROPERTY
W(SA)
SciTegic.value.DoubleValue
2.015

@<SCITEGIC>MOL_PROPERTY
Valence
SciTegic.value.DoubleValue
13.328

@<SCITEGIC>MOL_PROPERTY
Coulomb
SciTegic.value.DoubleValue
-8.387

@<SCITEGIC>MOL_PROPERTY
VdW
SciTegic.value.DoubleValue
3.840

@<SCITEGIC>MOL_PROPERTY
VdW6
SciTegic.value.DoubleValue
-9.744

@<SCITEGIC>MOL_PROPERTY
VdW12
SciTegic.value.DoubleValue
13.584

@<SCITEGIC>MOL_PROPERTY
Bond
SciTegic.value.DoubleValue
0.436

@<SCITEGIC>MOL_PROPERTY
Angle
SciTegic.value.DoubleValue
3.478

@<SCITEGIC>MOL_PROPERTY
Pdih
SciTegic.value.DoubleValue
9.415

@<SCITEGIC>MOL_PROPERTY
Idih
SciTegic.value.DoubleValue
0.000

@<SCITEGIC>MOL_PROPERTY
Tether
SciTegic.value.DoubleValue
0.000

@<TRIPOS>MOLECULE
guest-5_confgen4.mol2 : confsearch ligand conformer 314
          22          22           1
SMALL
USER_CHARGES
 
@<TRIPOS>ATOM
       1    C1      19.154414   21.057198   23.184939 C.3        1 MOL1        -0.1685
       2    H1      19.797758   21.642248   22.513795 H          1 MOL1         0.0832
       3    H2      18.452857   21.773552   23.633893 H          1 MOL1         0.0832
       4    C2      19.979846   20.426373   24.332273 C.3        1 MOL1        -0.1685
       5    H3      20.332770   21.230391   24.992466 H          1 MOL1         0.0832
       6    H4      19.323530   19.798966   24.950729 H          1 MOL1         0.0832
       7    C3      21.205633   19.597548   23.884139 C.3        1 MOL1        -0.1685
       8    H5      21.662786   19.151639   24.778009 H          1 MOL1         0.0832
       9    H6      21.965790   20.269249   23.462311 H          1 MOL1         0.0832
      10    C4      20.896561   18.467956   22.871383 C.3        1 MOL1        -0.1761
      11    H7      21.782100   17.821339   22.814898 H          1 MOL1         0.0832
      12    H8      20.078162   17.833896   23.236334 H          1 MOL1         0.0832
      13    C5      20.576434   19.004863   21.458274 C.3        1 MOL1         0.1218
      14    H9      21.164776   19.919418   21.296144 H          1 MOL1         0.0789
      15    C6      19.085962   19.338595   21.220763 C.3        1 MOL1        -0.1761
      16    H10     19.029039   19.992150   20.340720 H          1 MOL1         0.0832
      17    H11     18.546923   18.421065   20.949315 H          1 MOL1         0.0832
      18    C7      18.331117   20.015061   22.392363 C.3        1 MOL1        -0.1685
      19    H12     17.436648   20.503827   21.982657 H          1 MOL1         0.0832
      20    H13     17.956223   19.245622   23.080933 H          1 MOL1         0.0832
      21    O1      20.968492   18.031227   20.498304 O.3        1 MOL1        -0.5509
      22    H14     21.931239   17.890327   20.616130 H          1 MOL1         0.3779
@<TRIPOS>BOND
    1     1     2    1
    2     1     3    1
    3     1     4    1
    4     4     5    1
    5     4     6    1
    6     4     7    1
    7     7     8    1
    8     7     9    1
    9     7    10    1
   10    10    11    1
   11    10    12    1
   12    10    13    1
   13    13    14    1
   14    13    15    1
   15    15    16    1
   16    15    17    1
   17     1    18    1
   18    15    18    1
   19    18    19    1
   20    18    20    1
   21    13    21    1
   22    21    22    1
@<TRIPOS>SUBSTRUCTURE
       1 MOL1            1 RESIDUE      1      MOL     
@<SCITEGIC>MOL_PROPERTY
VConf Rank
SciTegic.value.IntegerValue
314

@<SCITEGIC>MOL_PROPERTY
Conf_Id
SciTegic.value.IntegerValue
144

@<SCITEGIC>MOL_PROPERTY
Delta U+W
SciTegic.value.DoubleValue
-3.291

@<SCITEGIC>MOL_PROPERTY
U+W
SciTegic.value.DoubleValue
3.132

@<SCITEGIC>MOL_PROPERTY
Grad RMS
SciTegic.value.DoubleValue
0.000000

@<SCITEGIC>MOL_PROPERTY
U
SciTegic.value.DoubleValue
5.411

@<SCITEGIC>MOL_PROPERTY
W
SciTegic.value.DoubleValue
-2.279

@<SCITEGIC>MOL_PROPERTY
W(PB)
SciTegic.value.DoubleValue
-4.300

@<SCITEGIC>MOL_PROPERTY
W(SA)
SciTegic.value.DoubleValue
2.021

@<SCITEGIC>MOL_PROPERTY
Valence
SciTegic.value.DoubleValue
11.909

@<SCITEGIC>MOL_PROPERTY
Coulomb
SciTegic.value.DoubleValue
-8.733

@<SCITEGIC>MOL_PROPERTY
VdW
SciTegic.value.DoubleValue
2.236

@<SCITEGIC>MOL_PROPERTY
VdW6
SciTegic.value.DoubleValue
-8.936

@<SCITEGIC>MOL_PROPERTY
VdW12
SciTegic.value.DoubleValue
11.172

@<SCITEGIC>MOL_PROPERTY
Bond
SciTegic.value.DoubleValue
0.223

@<SCITEGIC>MOL_PROPERTY
Angle
SciTegic.value.DoubleValue
2.457

@<SCITEGIC>MOL_PROPERTY
Pdih
SciTegic.value.DoubleValue
9.228

@<SCITEGIC>MOL_PROPERTY
Idih
SciTegic.value.DoubleValue
0.000

@<SCITEGIC>MOL_PROPERTY
Tether
SciTegic.value.DoubleValue
0.000

@<TRIPOS>MOLECULE
guest-5_confgen4.mol2 : confsearch ligand conformer 315
          22          22           1
SMALL
USER_CHARGES
 
@<TRIPOS>ATOM
       1    C1      21.298388   19.025116   23.590753 C.3        1 MOL1        -0.1685
       2    H1      22.288167   18.679409   23.918952 H          1 MOL1         0.0832
       3    H2      20.695333   19.130158   24.502878 H          1 MOL1         0.0832
       4    C2      20.700921   17.947320   22.656160 C.3        1 MOL1        -0.1685
       5    H3      21.101879   18.079830   21.642035 H          1 MOL1         0.0832
       6    H4      21.052349   16.959081   22.983089 H          1 MOL1         0.0832
       7    C3      19.154446   17.909373   22.602338 C.3        1 MOL1        -0.1685
       8    H5      18.781774   17.317227   23.449330 H          1 MOL1         0.0832
       9    H6      18.856794   17.358503   21.699585 H          1 MOL1         0.0832
      10    C4      18.432964   19.279545   22.617520 C.3        1 MOL1        -0.1761
      11    H7      17.410757   19.124951   22.246490 H          1 MOL1         0.0832
      12    H8      18.324586   19.618352   23.655961 H          1 MOL1         0.0832
      13    C5      19.120554   20.387086   21.787962 C.3        1 MOL1         0.1218
      14    H9      19.592439   19.942806   20.900038 H          1 MOL1         0.0789
      15    C6      20.178148   21.166821   22.601894 C.3        1 MOL1        -0.1761
      16    H10     20.439835   22.081567   22.053358 H          1 MOL1         0.0832
      17    H11     19.738404   21.498042   23.551633 H          1 MOL1         0.0832
      18    C7      21.486129   20.392767   22.891270 C.3        1 MOL1        -0.1685
      19    H12     22.039624   20.249780   21.953121 H          1 MOL1         0.0832
      20    H13     22.125912   21.024205   23.522738 H          1 MOL1         0.0832
      21    O1      18.126616   21.311210   21.365712 O.3        1 MOL1        -0.5509
      22    H14     17.730054   21.682477   22.180610 H          1 MOL1         0.3779
@<TRIPOS>BOND
    1     1     2    1
    2     1     3    1
    3     1     4    1
    4     4     5    1
    5     4     6    1
    6     4     7    1
    7     7     8    1
    8     7     9    1
    9     7    10    1
   10    10    11    1
   11    10    12    1
   12    10    13    1
   13    13    14    1
   14    13    15    1
   15    15    16    1
   16    15    17    1
   17     1    18    1
   18    15    18    1
   19    18    19    1
   20    18    20    1
   21    13    21    1
   22    21    22    1
@<TRIPOS>SUBSTRUCTURE
       1 MOL1            1 RESIDUE      1      MOL     
@<SCITEGIC>MOL_PROPERTY
VConf Rank
SciTegic.value.IntegerValue
315

@<SCITEGIC>MOL_PROPERTY
Conf_Id
SciTegic.value.IntegerValue
76

@<SCITEGIC>MOL_PROPERTY
Delta U+W
SciTegic.value.DoubleValue
-3.175

@<SCITEGIC>MOL_PROPERTY
U+W
SciTegic.value.DoubleValue
3.248

@<SCITEGIC>MOL_PROPERTY
Grad RMS
SciTegic.value.DoubleValue
0.000000

@<SCITEGIC>MOL_PROPERTY
U
SciTegic.value.DoubleValue
5.336

@<SCITEGIC>MOL_PROPERTY
W
SciTegic.value.DoubleValue
-2.088

@<SCITEGIC>MOL_PROPERTY
W(PB)
SciTegic.value.DoubleValue
-4.098

@<SCITEGIC>MOL_PROPERTY
W(SA)
SciTegic.value.DoubleValue
2.010

@<SCITEGIC>MOL_PROPERTY
Valence
SciTegic.value.DoubleValue
12.390

@<SCITEGIC>MOL_PROPERTY
Coulomb
SciTegic.value.DoubleValue
-9.270

@<SCITEGIC>MOL_PROPERTY
VdW
SciTegic.value.DoubleValue
2.216

@<SCITEGIC>MOL_PROPERTY
VdW6
SciTegic.value.DoubleValue
-8.967

@<SCITEGIC>MOL_PROPERTY
VdW12
SciTegic.value.DoubleValue
11.183

@<SCITEGIC>MOL_PROPERTY
Bond
SciTegic.value.DoubleValue
0.218

@<SCITEGIC>MOL_PROPERTY
Angle
SciTegic.value.DoubleValue
2.426

@<SCITEGIC>MOL_PROPERTY
Pdih
SciTegic.value.DoubleValue
9.745

@<SCITEGIC>MOL_PROPERTY
Idih
SciTegic.value.DoubleValue
0.000

@<SCITEGIC>MOL_PROPERTY
Tether
SciTegic.value.DoubleValue
0.000

@<TRIPOS>MOLECULE
guest-5_confgen4.mol2 : confsearch ligand conformer 316
          22          22           1
SMALL
USER_CHARGES
 
@<TRIPOS>ATOM
       1    C1      20.273647   18.792736   20.987677 C.3        1 MOL1        -0.1685
       2    H1      19.635642   18.949672   20.107278 H          1 MOL1         0.0832
       3    H2      21.103918   18.160152   20.645183 H          1 MOL1         0.0832
       4    C2      19.454956   18.015809   22.046358 C.3        1 MOL1        -0.1685
       5    H3      18.409316   18.351074   22.019651 H          1 MOL1         0.0832
       6    H4      19.431944   16.958595   21.748781 H          1 MOL1         0.0832
       7    C3      19.991404   18.118730   23.493138 C.3        1 MOL1        -0.1685
       8    H5      21.089881   18.121987   23.506344 H          1 MOL1         0.0832
       9    H6      19.682881   17.215374   24.036326 H          1 MOL1         0.0832
      10    C4      19.427422   19.344022   24.256462 C.3        1 MOL1        -0.1761
      11    H7      18.333753   19.353727   24.165329 H          1 MOL1         0.0832
      12    H8      19.632792   19.214519   25.327194 H          1 MOL1         0.0832
      13    C5      19.974575   20.725352   23.830261 C.3        1 MOL1         0.1218
      14    H9      19.350751   21.481085   24.329068 H          1 MOL1         0.0789
      15    C6      19.915640   21.017138   22.309776 C.3        1 MOL1        -0.1761
      16    H10     18.882155   20.921770   21.952436 H          1 MOL1         0.0832
      17    H11     20.182737   22.071814   22.164499 H          1 MOL1         0.0832
      18    C7      20.860836   20.152423   21.435655 C.3        1 MOL1        -0.1685
      19    H12     21.124681   20.719487   20.532744 H          1 MOL1         0.0832
      20    H13     21.810260   19.983800   21.960631 H          1 MOL1         0.0832
      21    O1      21.309544   20.868724   24.304946 O.3        1 MOL1        -0.5509
      22    H14     21.633484   21.729818   23.970487 H          1 MOL1         0.3779
@<TRIPOS>BOND
    1     1     2    1
    2     1     3    1
    3     1     4    1
    4     4     5    1
    5     4     6    1
    6     4     7    1
    7     7     8    1
    8     7     9    1
    9     7    10    1
   10    10    11    1
   11    10    12    1
   12    10    13    1
   13    13    14    1
   14    13    15    1
   15    15    16    1
   16    15    17    1
   17     1    18    1
   18    15    18    1
   19    18    19    1
   20    18    20    1
   21    13    21    1
   22    21    22    1
@<TRIPOS>SUBSTRUCTURE
       1 MOL1            1 RESIDUE      1      MOL     
@<SCITEGIC>MOL_PROPERTY
VConf Rank
SciTegic.value.IntegerValue
316

@<SCITEGIC>MOL_PROPERTY
Conf_Id
SciTegic.value.IntegerValue
95

@<SCITEGIC>MOL_PROPERTY
Delta U+W
SciTegic.value.DoubleValue
-2.289

@<SCITEGIC>MOL_PROPERTY
U+W
SciTegic.value.DoubleValue
4.134

@<SCITEGIC>MOL_PROPERTY
Grad RMS
SciTegic.value.DoubleValue
0.000000

@<SCITEGIC>MOL_PROPERTY
U
SciTegic.value.DoubleValue
6.373

@<SCITEGIC>MOL_PROPERTY
W
SciTegic.value.DoubleValue
-2.240

@<SCITEGIC>MOL_PROPERTY
W(PB)
SciTegic.value.DoubleValue
-4.254

@<SCITEGIC>MOL_PROPERTY
W(SA)
SciTegic.value.DoubleValue
2.015

@<SCITEGIC>MOL_PROPERTY
Valence
SciTegic.value.DoubleValue
12.093

@<SCITEGIC>MOL_PROPERTY
Coulomb
SciTegic.value.DoubleValue
-8.058

@<SCITEGIC>MOL_PROPERTY
VdW
SciTegic.value.DoubleValue
2.339

@<SCITEGIC>MOL_PROPERTY
VdW6
SciTegic.value.DoubleValue
-9.683

@<SCITEGIC>MOL_PROPERTY
VdW12
SciTegic.value.DoubleValue
12.022

@<SCITEGIC>MOL_PROPERTY
Bond
SciTegic.value.DoubleValue
0.268

@<SCITEGIC>MOL_PROPERTY
Angle
SciTegic.value.DoubleValue
3.005

@<SCITEGIC>MOL_PROPERTY
Pdih
SciTegic.value.DoubleValue
8.820

@<SCITEGIC>MOL_PROPERTY
Idih
SciTegic.value.DoubleValue
0.000

@<SCITEGIC>MOL_PROPERTY
Tether
SciTegic.value.DoubleValue
0.000

@<TRIPOS>MOLECULE
guest-5_confgen4.mol2 : confsearch ligand conformer 317
          22          22           1
SMALL
USER_CHARGES
 
@<TRIPOS>ATOM
       1    C1      21.543011   18.509411   22.311788 C.3        1 MOL1        -0.1685
       2    H1      22.595724   18.803484   22.201917 H          1 MOL1         0.0832
       3    H2      21.523864   17.418206   22.186506 H          1 MOL1         0.0832
       4    C2      20.736357   19.159808   21.162606 C.3        1 MOL1        -0.1685
       5    H3      21.145692   20.155878   20.946345 H          1 MOL1         0.0832
       6    H4      20.906170   18.568968   20.252182 H          1 MOL1         0.0832
       7    C3      19.214239   19.271709   21.411912 C.3        1 MOL1        -0.1685
       8    H5      18.837312   18.388815   21.945995 H          1 MOL1         0.0832
       9    H6      18.709167   19.276750   20.436565 H          1 MOL1         0.0832
      10    C4      18.824354   20.575938   22.152375 C.3        1 MOL1        -0.1761
      11    H7      19.287501   21.430455   21.642286 H          1 MOL1         0.0832
      12    H8      17.742015   20.727611   22.049801 H          1 MOL1         0.0832
      13    C5      19.185202   20.641567   23.654113 C.3        1 MOL1         0.1218
      14    H9      19.006110   21.676737   23.978843 H          1 MOL1         0.0789
      15    C6      20.660232   20.308575   23.991360 C.3        1 MOL1        -0.1761
      16    H10     21.331089   20.983377   23.444477 H          1 MOL1         0.0832
      17    H11     20.808776   20.535298   25.055014 H          1 MOL1         0.0832
      18    C7      21.075071   18.833651   23.750633 C.3        1 MOL1        -0.1685
      19    H12     21.894754   18.581520   24.436758 H          1 MOL1         0.0832
      20    H13     20.249853   18.164035   24.026766 H          1 MOL1         0.0832
      21    O1      18.311012   19.789063   24.387544 O.3        1 MOL1        -0.5509
      22    H14     17.398830   20.028960   24.125703 H          1 MOL1         0.3779
@<TRIPOS>BOND
    1     1     2    1
    2     1     3    1
    3     1     4    1
    4     4     5    1
    5     4     6    1
    6     4     7    1
    7     7     8    1
    8     7     9    1
    9     7    10    1
   10    10    11    1
   11    10    12    1
   12    10    13    1
   13    13    14    1
   14    13    15    1
   15    15    16    1
   16    15    17    1
   17     1    18    1
   18    15    18    1
   19    18    19    1
   20    18    20    1
   21    13    21    1
   22    21    22    1
@<TRIPOS>SUBSTRUCTURE
       1 MOL1            1 RESIDUE      1      MOL     
@<SCITEGIC>MOL_PROPERTY
VConf Rank
SciTegic.value.IntegerValue
317

@<SCITEGIC>MOL_PROPERTY
Conf_Id
SciTegic.value.IntegerValue
41

@<SCITEGIC>MOL_PROPERTY
Delta U+W
SciTegic.value.DoubleValue
-2.114

@<SCITEGIC>MOL_PROPERTY
U+W
SciTegic.value.DoubleValue
4.310

@<SCITEGIC>MOL_PROPERTY
Grad RMS
SciTegic.value.DoubleValue
0.000000

@<SCITEGIC>MOL_PROPERTY
U
SciTegic.value.DoubleValue
6.598

@<SCITEGIC>MOL_PROPERTY
W
SciTegic.value.DoubleValue
-2.289

@<SCITEGIC>MOL_PROPERTY
W(PB)
SciTegic.value.DoubleValue
-4.294

@<SCITEGIC>MOL_PROPERTY
W(SA)
SciTegic.value.DoubleValue
2.005

@<SCITEGIC>MOL_PROPERTY
Valence
SciTegic.value.DoubleValue
12.082

@<SCITEGIC>MOL_PROPERTY
Coulomb
SciTegic.value.DoubleValue
-7.801

@<SCITEGIC>MOL_PROPERTY
VdW
SciTegic.value.DoubleValue
2.317

@<SCITEGIC>MOL_PROPERTY
VdW6
SciTegic.value.DoubleValue
-9.658

@<SCITEGIC>MOL_PROPERTY
VdW12
SciTegic.value.DoubleValue
11.975

@<SCITEGIC>MOL_PROPERTY
Bond
SciTegic.value.DoubleValue
0.267

@<SCITEGIC>MOL_PROPERTY
Angle
SciTegic.value.DoubleValue
3.051

@<SCITEGIC>MOL_PROPERTY
Pdih
SciTegic.value.DoubleValue
8.764

@<SCITEGIC>MOL_PROPERTY
Idih
SciTegic.value.DoubleValue
0.000

@<SCITEGIC>MOL_PROPERTY
Tether
SciTegic.value.DoubleValue
0.000

@<TRIPOS>MOLECULE
guest-5_confgen4.mol2 : confsearch ligand conformer 318
          22          22           1
SMALL
USER_CHARGES
 
@<TRIPOS>ATOM
       1    C1      20.182166   21.174178   22.415052 C.3        1 MOL1        -0.1685
       2    H1      20.398740   22.250950   22.429451 H          1 MOL1         0.0832
       3    H2      19.837174   20.942986   21.397846 H          1 MOL1         0.0832
       4    C2      19.064280   20.901841   23.446337 C.3        1 MOL1        -0.1685
       5    H3      19.448307   21.079156   24.460075 H          1 MOL1         0.0832
       6    H4      18.261542   21.636334   23.295697 H          1 MOL1         0.0832
       7    C3      18.446972   19.488268   23.369112 C.3        1 MOL1        -0.1685
       8    H5      17.879324   19.387992   22.434441 H          1 MOL1         0.0832
       9    H6      17.705586   19.398421   24.174345 H          1 MOL1         0.0832
      10    C4      19.458755   18.318115   23.504104 C.3        1 MOL1        -0.1761
      11    H7      20.079886   18.458408   24.397844 H          1 MOL1         0.0832
      12    H8      18.883528   17.400889   23.684086 H          1 MOL1         0.0832
      13    C5      20.362018   18.056029   22.271441 C.3        1 MOL1         0.1218
      14    H9      20.770766   17.042049   22.389959 H          1 MOL1         0.0789
      15    C6      21.584179   18.997906   22.115455 C.3        1 MOL1        -0.1761
      16    H10     22.454580   18.500140   22.562326 H          1 MOL1         0.0832
      17    H11     21.825374   19.097351   21.048962 H          1 MOL1         0.0832
      18    C7      21.488013   20.413903   22.735618 C.3        1 MOL1        -0.1685
      19    H12     21.626260   20.354790   23.823647 H          1 MOL1         0.0832
      20    H13     22.337448   21.002111   22.362589 H          1 MOL1         0.0832
      21    O1      19.588618   18.071651   21.074558 O.3        1 MOL1        -0.5509
      22    H14     20.200374   17.862161   20.339863 H          1 MOL1         0.3779
@<TRIPOS>BOND
    1     1     2    1
    2     1     3    1
    3     1     4    1
    4     4     5    1
    5     4     6    1
    6     4     7    1
    7     7     8    1
    8     7     9    1
    9     7    10    1
   10    10    11    1
   11    10    12    1
   12    10    13    1
   13    13    14    1
   14    13    15    1
   15    15    16    1
   16    15    17    1
   17     1    18    1
   18    15    18    1
   19    18    19    1
   20    18    20    1
   21    13    21    1
   22    21    22    1
@<TRIPOS>SUBSTRUCTURE
       1 MOL1            1 RESIDUE      1      MOL     
@<SCITEGIC>MOL_PROPERTY
VConf Rank
SciTegic.value.IntegerValue
318

@<SCITEGIC>MOL_PROPERTY
Conf_Id
SciTegic.value.IntegerValue
104

@<SCITEGIC>MOL_PROPERTY
Delta U+W
SciTegic.value.DoubleValue
-1.172

@<SCITEGIC>MOL_PROPERTY
U+W
SciTegic.value.DoubleValue
5.252

@<SCITEGIC>MOL_PROPERTY
Grad RMS
SciTegic.value.DoubleValue
0.000000

@<SCITEGIC>MOL_PROPERTY
U
SciTegic.value.DoubleValue
7.482

@<SCITEGIC>MOL_PROPERTY
W
SciTegic.value.DoubleValue
-2.230

@<SCITEGIC>MOL_PROPERTY
W(PB)
SciTegic.value.DoubleValue
-4.220

@<SCITEGIC>MOL_PROPERTY
W(SA)
SciTegic.value.DoubleValue
1.990

@<SCITEGIC>MOL_PROPERTY
Valence
SciTegic.value.DoubleValue
12.309

@<SCITEGIC>MOL_PROPERTY
Coulomb
SciTegic.value.DoubleValue
-7.084

@<SCITEGIC>MOL_PROPERTY
VdW
SciTegic.value.DoubleValue
2.258

@<SCITEGIC>MOL_PROPERTY
VdW6
SciTegic.value.DoubleValue
-9.770

@<SCITEGIC>MOL_PROPERTY
VdW12
SciTegic.value.DoubleValue
12.028

@<SCITEGIC>MOL_PROPERTY
Bond
SciTegic.value.DoubleValue
0.284

@<SCITEGIC>MOL_PROPERTY
Angle
SciTegic.value.DoubleValue
3.491

@<SCITEGIC>MOL_PROPERTY
Pdih
SciTegic.value.DoubleValue
8.535

@<SCITEGIC>MOL_PROPERTY
Idih
SciTegic.value.DoubleValue
0.000

@<SCITEGIC>MOL_PROPERTY
Tether
SciTegic.value.DoubleValue
0.000

@<TRIPOS>MOLECULE
guest-5_confgen4.mol2 : confsearch ligand conformer 319
          22          22           1
SMALL
USER_CHARGES
 
@<TRIPOS>ATOM
       1    C1      21.701015   19.646953   22.817029 C.3        1 MOL1        -0.1685
       2    H1      21.807362   20.413935   22.037983 H          1 MOL1         0.0832
       3    H2      22.720854   19.412922   23.151839 H          1 MOL1         0.0832
       4    C2      21.085068   18.353002   22.237559 C.3        1 MOL1        -0.1685
       5    H3      21.873556   17.792400   21.716732 H          1 MOL1         0.0832
       6    H4      20.769426   17.699808   23.061601 H          1 MOL1         0.0832
       7    C3      19.913518   18.553806   21.243163 C.3        1 MOL1        -0.1685
       8    H5      19.288722   17.650031   21.254760 H          1 MOL1         0.0832
       9    H6      20.326348   18.609196   20.226584 H          1 MOL1         0.0832
      10    C4      19.010535   19.800062   21.449731 C.3        1 MOL1        -0.1761
      11    H7      19.521082   20.683988   21.046034 H          1 MOL1         0.0832
      12    H8      18.114654   19.676202   20.827591 H          1 MOL1         0.0832
      13    C5      18.553566   20.107261   22.894303 C.3        1 MOL1         0.1218
      14    H9      17.649483   20.729231   22.825967 H          1 MOL1         0.0789
      15    C6      19.596320   20.921101   23.693425 C.3        1 MOL1        -0.1761
      16    H10     19.824736   21.840541   23.138883 H          1 MOL1         0.0832
      17    H11     19.128549   21.249844   24.630636 H          1 MOL1         0.0832
      18    C7      20.922930   20.198611   24.035339 C.3        1 MOL1        -0.1685
      19    H12     21.569209   20.913781   24.562185 H          1 MOL1         0.0832
      20    H13     20.732035   19.389386   24.753109 H          1 MOL1         0.0832
      21    O1      18.237101   18.907368   23.582978 O.3        1 MOL1        -0.5509
      22    H14     19.057641   18.378092   23.529427 H          1 MOL1         0.3779
@<TRIPOS>BOND
    1     1     2    1
    2     1     3    1
    3     1     4    1
    4     4     5    1
    5     4     6    1
    6     4     7    1
    7     7     8    1
    8     7     9    1
    9     7    10    1
   10    10    11    1
   11    10    12    1
   12    10    13    1
   13    13    14    1
   14    13    15    1
   15    15    16    1
   16    15    17    1
   17     1    18    1
   18    15    18    1
   19    18    19    1
   20    18    20    1
   21    13    21    1
   22    21    22    1
@<TRIPOS>SUBSTRUCTURE
       1 MOL1            1 RESIDUE      1      MOL     
@<SCITEGIC>MOL_PROPERTY
VConf Rank
SciTegic.value.IntegerValue
319

@<SCITEGIC>MOL_PROPERTY
Conf_Id
SciTegic.value.IntegerValue
99

@<SCITEGIC>MOL_PROPERTY
Delta U+W
SciTegic.value.DoubleValue
-3.852

@<SCITEGIC>MOL_PROPERTY
U+W
SciTegic.value.DoubleValue
2.572

@<SCITEGIC>MOL_PROPERTY
Grad RMS
SciTegic.value.DoubleValue
0.000000

@<SCITEGIC>MOL_PROPERTY
U
SciTegic.value.DoubleValue
3.922

@<SCITEGIC>MOL_PROPERTY
W
SciTegic.value.DoubleValue
-1.350

@<SCITEGIC>MOL_PROPERTY
W(PB)
SciTegic.value.DoubleValue
-3.345

@<SCITEGIC>MOL_PROPERTY
W(SA)
SciTegic.value.DoubleValue
1.995

@<SCITEGIC>MOL_PROPERTY
Valence
SciTegic.value.DoubleValue
12.571

@<SCITEGIC>MOL_PROPERTY
Coulomb
SciTegic.value.DoubleValue
-10.581

@<SCITEGIC>MOL_PROPERTY
VdW
SciTegic.value.DoubleValue
1.932

@<SCITEGIC>MOL_PROPERTY
VdW6
SciTegic.value.DoubleValue
-10.483

@<SCITEGIC>MOL_PROPERTY
VdW12
SciTegic.value.DoubleValue
12.415

@<SCITEGIC>MOL_PROPERTY
Bond
SciTegic.value.DoubleValue
0.268

@<SCITEGIC>MOL_PROPERTY
Angle
SciTegic.value.DoubleValue
3.728

@<SCITEGIC>MOL_PROPERTY
Pdih
SciTegic.value.DoubleValue
8.575

@<SCITEGIC>MOL_PROPERTY
Idih
SciTegic.value.DoubleValue
0.000

@<SCITEGIC>MOL_PROPERTY
Tether
SciTegic.value.DoubleValue
0.000

@<TRIPOS>MOLECULE
guest-5_confgen4.mol2 : confsearch ligand conformer 320
          22          22           1
SMALL
USER_CHARGES
 
@<TRIPOS>ATOM
       1    C1      18.451873   19.379841   22.359982 C.3        1 MOL1        -0.1685
       2    H1      17.395393   19.650977   22.492746 H          1 MOL1         0.0832
       3    H2      18.443153   18.552185   21.638203 H          1 MOL1         0.0832
       4    C2      18.994768   18.887918   23.733710 C.3        1 MOL1        -0.1685
       5    H3      18.173225   18.945980   24.461025 H          1 MOL1         0.0832
       6    H4      19.250094   17.821174   23.679673 H          1 MOL1         0.0832
       7    C3      20.194797   19.680077   24.312643 C.3        1 MOL1        -0.1685
       8    H5      20.349985   19.362681   25.352789 H          1 MOL1         0.0832
       9    H6      19.936167   20.743788   24.384755 H          1 MOL1         0.0832
      10    C4      21.544674   19.518310   23.559986 C.3        1 MOL1        -0.1761
      11    H7      22.175449   20.384734   23.797000 H          1 MOL1         0.0832
      12    H8      22.073352   18.651511   23.978502 H          1 MOL1         0.0832
      13    C5      21.508752   19.344495   22.021592 C.3        1 MOL1         0.1218
      14    H9      22.539191   19.475359   21.661254 H          1 MOL1         0.0789
      15    C6      20.627528   20.349026   21.238965 C.3        1 MOL1        -0.1761
      16    H10     21.150000   21.313576   21.201440 H          1 MOL1         0.0832
      17    H11     20.578975   20.004748   20.197278 H          1 MOL1         0.0832
      18    C7      19.178483   20.600953   21.740564 C.3        1 MOL1        -0.1685
      19    H12     19.172929   21.435543   22.452601 H          1 MOL1         0.0832
      20    H13     18.585917   20.961126   20.888586 H          1 MOL1         0.0832
      21    O1      21.118349   18.018518   21.701262 O.3        1 MOL1        -0.5509
      22    H14     20.202818   17.953380   22.039630 H          1 MOL1         0.3779
@<TRIPOS>BOND
    1     1     2    1
    2     1     3    1
    3     1     4    1
    4     4     5    1
    5     4     6    1
    6     4     7    1
    7     7     8    1
    8     7     9    1
    9     7    10    1
   10    10    11    1
   11    10    12    1
   12    10    13    1
   13    13    14    1
   14    13    15    1
   15    15    16    1
   16    15    17    1
   17     1    18    1
   18    15    18    1
   19    18    19    1
   20    18    20    1
   21    13    21    1
   22    21    22    1
@<TRIPOS>SUBSTRUCTURE
       1 MOL1            1 RESIDUE      1      MOL     
@<SCITEGIC>MOL_PROPERTY
VConf Rank
SciTegic.value.IntegerValue
320

@<SCITEGIC>MOL_PROPERTY
Conf_Id
SciTegic.value.IntegerValue
98

@<SCITEGIC>MOL_PROPERTY
Delta U+W
SciTegic.value.DoubleValue
0.930

@<SCITEGIC>MOL_PROPERTY
U+W
SciTegic.value.DoubleValue
7.353

@<SCITEGIC>MOL_PROPERTY
Grad RMS
SciTegic.value.DoubleValue
0.000000

@<SCITEGIC>MOL_PROPERTY
U
SciTegic.value.DoubleValue
8.455

@<SCITEGIC>MOL_PROPERTY
W
SciTegic.value.DoubleValue
-1.102

@<SCITEGIC>MOL_PROPERTY
W(PB)
SciTegic.value.DoubleValue
-3.101

@<SCITEGIC>MOL_PROPERTY
W(SA)
SciTegic.value.DoubleValue
2.000

@<SCITEGIC>MOL_PROPERTY
Valence
SciTegic.value.DoubleValue
15.601

@<SCITEGIC>MOL_PROPERTY
Coulomb
SciTegic.value.DoubleValue
-10.573

@<SCITEGIC>MOL_PROPERTY
VdW
SciTegic.value.DoubleValue
3.427

@<SCITEGIC>MOL_PROPERTY
VdW6
SciTegic.value.DoubleValue
-11.360

@<SCITEGIC>MOL_PROPERTY
VdW12
SciTegic.value.DoubleValue
14.787

@<SCITEGIC>MOL_PROPERTY
Bond
SciTegic.value.DoubleValue
0.471

@<SCITEGIC>MOL_PROPERTY
Angle
SciTegic.value.DoubleValue
5.445

@<SCITEGIC>MOL_PROPERTY
Pdih
SciTegic.value.DoubleValue
9.685

@<SCITEGIC>MOL_PROPERTY
Idih
SciTegic.value.DoubleValue
0.000

@<SCITEGIC>MOL_PROPERTY
Tether
SciTegic.value.DoubleValue
0.000

@<TRIPOS>MOLECULE
guest-5_confgen4.mol2 : confsearch ligand conformer 321
          22          22           1
SMALL
USER_CHARGES
 
@<TRIPOS>ATOM
       1    C1      21.261534   19.514739   21.471097 C.3        1 MOL1        -0.1685
       2    H1      20.781339   20.396069   21.026742 H          1 MOL1         0.0832
       3    H2      22.163881   19.346964   20.867496 H          1 MOL1         0.0832
       4    C2      20.333357   18.282278   21.323830 C.3        1 MOL1        -0.1685
       5    H3      20.148953   18.133558   20.251099 H          1 MOL1         0.0832
       6    H4      20.862305   17.381061   21.662424 H          1 MOL1         0.0832
       7    C3      18.958720   18.368113   22.043311 C.3        1 MOL1        -0.1685
       8    H5      18.976433   17.767072   22.961706 H          1 MOL1         0.0832
       9    H6      18.206910   17.885538   21.404141 H          1 MOL1         0.0832
      10    C4      18.479558   19.806100   22.375437 C.3        1 MOL1        -0.1761
      11    H7      18.524674   20.419337   21.466849 H          1 MOL1         0.0832
      12    H8      17.412822   19.763197   22.633547 H          1 MOL1         0.0832
      13    C5      19.246297   20.531075   23.520161 C.3        1 MOL1         0.1218
      14    H9      19.475474   21.551653   23.181094 H          1 MOL1         0.0789
      15    C6      20.568627   19.865378   23.976834 C.3        1 MOL1        -0.1761
      16    H10     20.946834   20.395574   24.860525 H          1 MOL1         0.0832
      17    H11     20.367785   18.843880   24.321499 H          1 MOL1         0.0832
      18    C7      21.699569   19.840135   22.918468 C.3        1 MOL1        -0.1685
      19    H12     22.202024   20.817022   22.911838 H          1 MOL1         0.0832
      20    H13     22.458718   19.113018   23.237318 H          1 MOL1         0.0832
      21    O1      18.392831   20.607377   24.656360 O.3        1 MOL1        -0.5509
      22    H14     18.876609   21.116665   25.339562 H          1 MOL1         0.3779
@<TRIPOS>BOND
    1     1     2    1
    2     1     3    1
    3     1     4    1
    4     4     5    1
    5     4     6    1
    6     4     7    1
    7     7     8    1
    8     7     9    1
    9     7    10    1
   10    10    11    1
   11    10    12    1
   12    10    13    1
   13    13    14    1
   14    13    15    1
   15    15    16    1
   16    15    17    1
   17     1    18    1
   18    15    18    1
   19    18    19    1
   20    18    20    1
   21    13    21    1
   22    21    22    1
@<TRIPOS>SUBSTRUCTURE
       1 MOL1            1 RESIDUE      1      MOL     
@<SCITEGIC>MOL_PROPERTY
VConf Rank
SciTegic.value.IntegerValue
321

@<SCITEGIC>MOL_PROPERTY
Conf_Id
SciTegic.value.IntegerValue
141

@<SCITEGIC>MOL_PROPERTY
Delta U+W
SciTegic.value.DoubleValue
0.000

@<SCITEGIC>MOL_PROPERTY
U+W
SciTegic.value.DoubleValue
6.423

@<SCITEGIC>MOL_PROPERTY
Grad RMS
SciTegic.value.DoubleValue
0.000000

@<SCITEGIC>MOL_PROPERTY
U
SciTegic.value.DoubleValue
8.781

@<SCITEGIC>MOL_PROPERTY
W
SciTegic.value.DoubleValue
-2.358

@<SCITEGIC>MOL_PROPERTY
W(PB)
SciTegic.value.DoubleValue
-4.373

@<SCITEGIC>MOL_PROPERTY
W(SA)
SciTegic.value.DoubleValue
2.015

@<SCITEGIC>MOL_PROPERTY
Valence
SciTegic.value.DoubleValue
13.328

@<SCITEGIC>MOL_PROPERTY
Coulomb
SciTegic.value.DoubleValue
-8.387

@<SCITEGIC>MOL_PROPERTY
VdW
SciTegic.value.DoubleValue
3.840

@<SCITEGIC>MOL_PROPERTY
VdW6
SciTegic.value.DoubleValue
-9.744

@<SCITEGIC>MOL_PROPERTY
VdW12
SciTegic.value.DoubleValue
13.584

@<SCITEGIC>MOL_PROPERTY
Bond
SciTegic.value.DoubleValue
0.436

@<SCITEGIC>MOL_PROPERTY
Angle
SciTegic.value.DoubleValue
3.478

@<SCITEGIC>MOL_PROPERTY
Pdih
SciTegic.value.DoubleValue
9.415

@<SCITEGIC>MOL_PROPERTY
Idih
SciTegic.value.DoubleValue
0.000

@<SCITEGIC>MOL_PROPERTY
Tether
SciTegic.value.DoubleValue
0.000

@<TRIPOS>MOLECULE
guest-5_confgen4.mol2 : confsearch ligand conformer 322
          22          22           1
SMALL
USER_CHARGES
 
@<TRIPOS>ATOM
       1    C1      20.742521   19.081739   21.173919 C.3        1 MOL1        -0.1685
       2    H1      19.753285   19.081773   20.696403 H          1 MOL1         0.0832
       3    H2      21.460035   18.814812   20.385993 H          1 MOL1         0.0832
       4    C2      20.826524   17.995360   22.273182 C.3        1 MOL1        -0.1685
       5    H3      20.801615   17.008070   21.792046 H          1 MOL1         0.0832
       6    H4      21.802286   18.058703   22.773937 H          1 MOL1         0.0832
       7    C3      19.703213   18.042980   23.334424 C.3        1 MOL1        -0.1685
       8    H5      19.911916   17.272099   24.088754 H          1 MOL1         0.0832
       9    H6      18.749771   17.756885   22.869604 H          1 MOL1         0.0832
      10    C4      19.538778   19.404979   24.052129 C.3        1 MOL1        -0.1761
      11    H7      18.887337   19.245577   24.921439 H          1 MOL1         0.0832
      12    H8      20.501090   19.751193   24.450987 H          1 MOL1         0.0832
      13    C5      18.908863   20.485302   23.144529 C.3        1 MOL1         0.1218
      14    H9      18.206969   19.991128   22.457521 H          1 MOL1         0.0789
      15    C6      19.925896   21.289561   22.303039 C.3        1 MOL1        -0.1761
      16    H10     19.371762   21.776303   21.490101 H          1 MOL1         0.0832
      17    H11     20.340203   22.102938   22.913676 H          1 MOL1         0.0832
      18    C7      21.106034   20.492564   21.693026 C.3        1 MOL1        -0.1685
      19    H12     21.520963   21.081824   20.863911 H          1 MOL1         0.0832
      20    H13     21.915857   20.412702   22.430941 H          1 MOL1         0.0832
      21    O1      18.186220   21.402218   23.957099 O.3        1 MOL1        -0.5509
      22    H14     17.497920   20.883798   24.424113 H          1 MOL1         0.3779
@<TRIPOS>BOND
    1     1     2    1
    2     1     3    1
    3     1     4    1
    4     4     5    1
    5     4     6    1
    6     4     7    1
    7     7     8    1
    8     7     9    1
    9     7    10    1
   10    10    11    1
   11    10    12    1
   12    10    13    1
   13    13    14    1
   14    13    15    1
   15    15    16    1
   16    15    17    1
   17     1    18    1
   18    15    18    1
   19    18    19    1
   20    18    20    1
   21    13    21    1
   22    21    22    1
@<TRIPOS>SUBSTRUCTURE
       1 MOL1            1 RESIDUE      1      MOL     
@<SCITEGIC>MOL_PROPERTY
VConf Rank
SciTegic.value.IntegerValue
322

@<SCITEGIC>MOL_PROPERTY
Conf_Id
SciTegic.value.IntegerValue
144

@<SCITEGIC>MOL_PROPERTY
Delta U+W
SciTegic.value.DoubleValue
-3.291

@<SCITEGIC>MOL_PROPERTY
U+W
SciTegic.value.DoubleValue
3.132

@<SCITEGIC>MOL_PROPERTY
Grad RMS
SciTegic.value.DoubleValue
0.000000

@<SCITEGIC>MOL_PROPERTY
U
SciTegic.value.DoubleValue
5.411

@<SCITEGIC>MOL_PROPERTY
W
SciTegic.value.DoubleValue
-2.279

@<SCITEGIC>MOL_PROPERTY
W(PB)
SciTegic.value.DoubleValue
-4.300

@<SCITEGIC>MOL_PROPERTY
W(SA)
SciTegic.value.DoubleValue
2.021

@<SCITEGIC>MOL_PROPERTY
Valence
SciTegic.value.DoubleValue
11.909

@<SCITEGIC>MOL_PROPERTY
Coulomb
SciTegic.value.DoubleValue
-8.733

@<SCITEGIC>MOL_PROPERTY
VdW
SciTegic.value.DoubleValue
2.236

@<SCITEGIC>MOL_PROPERTY
VdW6
SciTegic.value.DoubleValue
-8.936

@<SCITEGIC>MOL_PROPERTY
VdW12
SciTegic.value.DoubleValue
11.172

@<SCITEGIC>MOL_PROPERTY
Bond
SciTegic.value.DoubleValue
0.223

@<SCITEGIC>MOL_PROPERTY
Angle
SciTegic.value.DoubleValue
2.457

@<SCITEGIC>MOL_PROPERTY
Pdih
SciTegic.value.DoubleValue
9.228

@<SCITEGIC>MOL_PROPERTY
Idih
SciTegic.value.DoubleValue
0.000

@<SCITEGIC>MOL_PROPERTY
Tether
SciTegic.value.DoubleValue
0.000

@<TRIPOS>MOLECULE
guest-5_confgen4.mol2 : confsearch ligand conformer 323
          22          22           1
SMALL
USER_CHARGES
 
@<TRIPOS>ATOM
       1    C1      20.616740   18.047602   23.181260 C.3        1 MOL1        -0.1685
       2    H1      21.073713   17.049519   23.224825 H          1 MOL1         0.0832
       3    H2      20.463676   18.357521   24.223951 H          1 MOL1         0.0832
       4    C2      19.265411   17.923011   22.439330 C.3        1 MOL1        -0.1685
       5    H3      19.440961   17.937809   21.355016 H          1 MOL1         0.0832
       6    H4      18.832725   16.935902   22.652393 H          1 MOL1         0.0832
       7    C3      18.212055   18.995057   22.809577 C.3        1 MOL1        -0.1685
       8    H5      17.688323   18.681082   23.722835 H          1 MOL1         0.0832
       9    H6      17.449002   19.012422   22.019345 H          1 MOL1         0.0832
      10    C4      18.743462   20.433006   23.028779 C.3        1 MOL1        -0.1761
      11    H7      17.891322   21.121580   22.950086 H          1 MOL1         0.0832
      12    H8      19.109377   20.528876   24.059221 H          1 MOL1         0.0832
      13    C5      19.854329   20.873391   22.049173 C.3        1 MOL1         0.1218
      14    H9      19.677430   20.419514   21.063693 H          1 MOL1         0.0789
      15    C6      21.267817   20.495957   22.547744 C.3        1 MOL1        -0.1761
      16    H10     22.009069   21.047116   21.953691 H          1 MOL1         0.0832
      17    H11     21.394366   20.837605   23.583286 H          1 MOL1         0.0832
      18    C7      21.613306   18.990149   22.464704 C.3        1 MOL1        -0.1685
      19    H12     21.701313   18.694495   21.410300 H          1 MOL1         0.0832
      20    H13     22.610608   18.842414   22.900998 H          1 MOL1         0.0832
      21    O1      19.800710   22.287788   21.919481 O.3        1 MOL1        -0.5509
      22    H14     19.960357   22.653812   22.813740 H          1 MOL1         0.3779
@<TRIPOS>BOND
    1     1     2    1
    2     1     3    1
    3     1     4    1
    4     4     5    1
    5     4     6    1
    6     4     7    1
    7     7     8    1
    8     7     9    1
    9     7    10    1
   10    10    11    1
   11    10    12    1
   12    10    13    1
   13    13    14    1
   14    13    15    1
   15    15    16    1
   16    15    17    1
   17     1    18    1
   18    15    18    1
   19    18    19    1
   20    18    20    1
   21    13    21    1
   22    21    22    1
@<TRIPOS>SUBSTRUCTURE
       1 MOL1            1 RESIDUE      1      MOL     
@<SCITEGIC>MOL_PROPERTY
VConf Rank
SciTegic.value.IntegerValue
323

@<SCITEGIC>MOL_PROPERTY
Conf_Id
SciTegic.value.IntegerValue
76

@<SCITEGIC>MOL_PROPERTY
Delta U+W
SciTegic.value.DoubleValue
-3.175

@<SCITEGIC>MOL_PROPERTY
U+W
SciTegic.value.DoubleValue
3.248

@<SCITEGIC>MOL_PROPERTY
Grad RMS
SciTegic.value.DoubleValue
0.000000

@<SCITEGIC>MOL_PROPERTY
U
SciTegic.value.DoubleValue
5.336

@<SCITEGIC>MOL_PROPERTY
W
SciTegic.value.DoubleValue
-2.088

@<SCITEGIC>MOL_PROPERTY
W(PB)
SciTegic.value.DoubleValue
-4.098

@<SCITEGIC>MOL_PROPERTY
W(SA)
SciTegic.value.DoubleValue
2.010

@<SCITEGIC>MOL_PROPERTY
Valence
SciTegic.value.DoubleValue
12.390

@<SCITEGIC>MOL_PROPERTY
Coulomb
SciTegic.value.DoubleValue
-9.270

@<SCITEGIC>MOL_PROPERTY
VdW
SciTegic.value.DoubleValue
2.216

@<SCITEGIC>MOL_PROPERTY
VdW6
SciTegic.value.DoubleValue
-8.967

@<SCITEGIC>MOL_PROPERTY
VdW12
SciTegic.value.DoubleValue
11.183

@<SCITEGIC>MOL_PROPERTY
Bond
SciTegic.value.DoubleValue
0.218

@<SCITEGIC>MOL_PROPERTY
Angle
SciTegic.value.DoubleValue
2.426

@<SCITEGIC>MOL_PROPERTY
Pdih
SciTegic.value.DoubleValue
9.745

@<SCITEGIC>MOL_PROPERTY
Idih
SciTegic.value.DoubleValue
0.000

@<SCITEGIC>MOL_PROPERTY
Tether
SciTegic.value.DoubleValue
0.000

@<TRIPOS>MOLECULE
guest-5_confgen4.mol2 : confsearch ligand conformer 324
          22          22           1
SMALL
USER_CHARGES
 
@<TRIPOS>ATOM
       1    C1      20.744305   18.266581   21.507035 C.3        1 MOL1        -0.1685
       2    H1      20.245487   17.346998   21.171880 H          1 MOL1         0.0832
       3    H2      21.686756   18.316375   20.944787 H          1 MOL1         0.0832
       4    C2      21.066302   18.120976   23.013617 C.3        1 MOL1        -0.1685
       5    H3      20.255208   17.571627   23.510429 H          1 MOL1         0.0832
       6    H4      21.955316   17.482977   23.110541 H          1 MOL1         0.0832
       7    C3      21.319163   19.451454   23.760231 C.3        1 MOL1        -0.1685
       8    H5      21.862480   20.162992   23.123555 H          1 MOL1         0.0832
       9    H6      21.977067   19.243313   24.614707 H          1 MOL1         0.0832
      10    C4      20.017405   20.087280   24.310896 C.3        1 MOL1        -0.1761
      11    H7      19.461167   19.333110   24.882157 H          1 MOL1         0.0832
      12    H8      20.287581   20.866139   25.036015 H          1 MOL1         0.0832
      13    C5      19.069978   20.718155   23.265201 C.3        1 MOL1         0.1218
      14    H9      18.131513   20.952372   23.788195 H          1 MOL1         0.0789
      15    C6      18.708386   19.804511   22.067289 C.3        1 MOL1        -0.1761
      16    H10     18.259150   18.872085   22.432868 H          1 MOL1         0.0832
      17    H11     17.919612   20.307769   21.493395 H          1 MOL1         0.0832
      18    C7      19.881226   19.485919   21.103878 C.3        1 MOL1        -0.1685
      19    H12     19.473698   19.293919   20.102140 H          1 MOL1         0.0832
      20    H13     20.526218   20.367233   20.991136 H          1 MOL1         0.0832
      21    O1      19.633460   21.939337   22.796985 O.3        1 MOL1        -0.5509
      22    H14     19.030743   22.276686   22.103291 H          1 MOL1         0.3779
@<TRIPOS>BOND
    1     1     2    1
    2     1     3    1
    3     1     4    1
    4     4     5    1
    5     4     6    1
    6     4     7    1
    7     7     8    1
    8     7     9    1
    9     7    10    1
   10    10    11    1
   11    10    12    1
   12    10    13    1
   13    13    14    1
   14    13    15    1
   15    15    16    1
   16    15    17    1
   17     1    18    1
   18    15    18    1
   19    18    19    1
   20    18    20    1
   21    13    21    1
   22    21    22    1
@<TRIPOS>SUBSTRUCTURE
       1 MOL1            1 RESIDUE      1      MOL     
@<SCITEGIC>MOL_PROPERTY
VConf Rank
SciTegic.value.IntegerValue
324

@<SCITEGIC>MOL_PROPERTY
Conf_Id
SciTegic.value.IntegerValue
95

@<SCITEGIC>MOL_PROPERTY
Delta U+W
SciTegic.value.DoubleValue
-2.289

@<SCITEGIC>MOL_PROPERTY
U+W
SciTegic.value.DoubleValue
4.134

@<SCITEGIC>MOL_PROPERTY
Grad RMS
SciTegic.value.DoubleValue
0.000000

@<SCITEGIC>MOL_PROPERTY
U
SciTegic.value.DoubleValue
6.373

@<SCITEGIC>MOL_PROPERTY
W
SciTegic.value.DoubleValue
-2.240

@<SCITEGIC>MOL_PROPERTY
W(PB)
SciTegic.value.DoubleValue
-4.254

@<SCITEGIC>MOL_PROPERTY
W(SA)
SciTegic.value.DoubleValue
2.015

@<SCITEGIC>MOL_PROPERTY
Valence
SciTegic.value.DoubleValue
12.093

@<SCITEGIC>MOL_PROPERTY
Coulomb
SciTegic.value.DoubleValue
-8.058

@<SCITEGIC>MOL_PROPERTY
VdW
SciTegic.value.DoubleValue
2.339

@<SCITEGIC>MOL_PROPERTY
VdW6
SciTegic.value.DoubleValue
-9.683

@<SCITEGIC>MOL_PROPERTY
VdW12
SciTegic.value.DoubleValue
12.022

@<SCITEGIC>MOL_PROPERTY
Bond
SciTegic.value.DoubleValue
0.268

@<SCITEGIC>MOL_PROPERTY
Angle
SciTegic.value.DoubleValue
3.005

@<SCITEGIC>MOL_PROPERTY
Pdih
SciTegic.value.DoubleValue
8.820

@<SCITEGIC>MOL_PROPERTY
Idih
SciTegic.value.DoubleValue
0.000

@<SCITEGIC>MOL_PROPERTY
Tether
SciTegic.value.DoubleValue
0.000

@<TRIPOS>MOLECULE
guest-5_confgen4.mol2 : confsearch ligand conformer 325
          22          22           1
SMALL
USER_CHARGES
 
@<TRIPOS>ATOM
       1    C1      21.655989   19.944691   23.685440 C.3        1 MOL1        -0.1685
       2    H1      21.760381   20.230459   24.740993 H          1 MOL1         0.0832
       3    H2      22.680244   19.835376   23.303677 H          1 MOL1         0.0832
       4    C2      20.963292   21.107471   22.935479 C.3        1 MOL1        -0.1685
       5    H3      20.215174   21.572099   23.591924 H          1 MOL1         0.0832
       6    H4      21.714859   21.886843   22.749668 H          1 MOL1         0.0832
       7    C3      20.300360   20.719077   21.593396 C.3        1 MOL1        -0.1685
       8    H5      20.903596   19.973076   21.058226 H          1 MOL1         0.0832
       9    H6      20.280281   21.611259   20.953056 H          1 MOL1         0.0832
      10    C4      18.840346   20.229897   21.767666 C.3        1 MOL1        -0.1761
      11    H7      18.288942   20.956253   22.378614 H          1 MOL1         0.0832
      12    H8      18.347182   20.240685   20.787026 H          1 MOL1         0.0832
      13    C5      18.661116   18.825135   22.387549 C.3        1 MOL1         0.1218
      14    H9      17.589061   18.706856   22.601578 H          1 MOL1         0.0789
      15    C6      19.418415   18.592140   23.718919 C.3        1 MOL1        -0.1761
      16    H10     19.110224   19.339699   24.460986 H          1 MOL1         0.0832
      17    H11     19.088027   17.623044   24.114550 H          1 MOL1         0.0832
      18    C7      20.964658   18.562867   23.601795 C.3        1 MOL1        -0.1685
      19    H12     21.367414   17.934878   24.407794 H          1 MOL1         0.0832
      20    H13     21.258938   18.062188   22.669948 H          1 MOL1         0.0832
      21    O1      19.034527   17.836427   21.432607 O.3        1 MOL1        -0.5509
      22    H14     18.543310   18.039397   20.610601 H          1 MOL1         0.3779
@<TRIPOS>BOND
    1     1     2    1
    2     1     3    1
    3     1     4    1
    4     4     5    1
    5     4     6    1
    6     4     7    1
    7     7     8    1
    8     7     9    1
    9     7    10    1
   10    10    11    1
   11    10    12    1
   12    10    13    1
   13    13    14    1
   14    13    15    1
   15    15    16    1
   16    15    17    1
   17     1    18    1
   18    15    18    1
   19    18    19    1
   20    18    20    1
   21    13    21    1
   22    21    22    1
@<TRIPOS>SUBSTRUCTURE
       1 MOL1            1 RESIDUE      1      MOL     
@<SCITEGIC>MOL_PROPERTY
VConf Rank
SciTegic.value.IntegerValue
325

@<SCITEGIC>MOL_PROPERTY
Conf_Id
SciTegic.value.IntegerValue
41

@<SCITEGIC>MOL_PROPERTY
Delta U+W
SciTegic.value.DoubleValue
-2.114

@<SCITEGIC>MOL_PROPERTY
U+W
SciTegic.value.DoubleValue
4.310

@<SCITEGIC>MOL_PROPERTY
Grad RMS
SciTegic.value.DoubleValue
0.000000

@<SCITEGIC>MOL_PROPERTY
U
SciTegic.value.DoubleValue
6.598

@<SCITEGIC>MOL_PROPERTY
W
SciTegic.value.DoubleValue
-2.289

@<SCITEGIC>MOL_PROPERTY
W(PB)
SciTegic.value.DoubleValue
-4.294

@<SCITEGIC>MOL_PROPERTY
W(SA)
SciTegic.value.DoubleValue
2.005

@<SCITEGIC>MOL_PROPERTY
Valence
SciTegic.value.DoubleValue
12.082

@<SCITEGIC>MOL_PROPERTY
Coulomb
SciTegic.value.DoubleValue
-7.801

@<SCITEGIC>MOL_PROPERTY
VdW
SciTegic.value.DoubleValue
2.317

@<SCITEGIC>MOL_PROPERTY
VdW6
SciTegic.value.DoubleValue
-9.658

@<SCITEGIC>MOL_PROPERTY
VdW12
SciTegic.value.DoubleValue
11.975

@<SCITEGIC>MOL_PROPERTY
Bond
SciTegic.value.DoubleValue
0.267

@<SCITEGIC>MOL_PROPERTY
Angle
SciTegic.value.DoubleValue
3.051

@<SCITEGIC>MOL_PROPERTY
Pdih
SciTegic.value.DoubleValue
8.764

@<SCITEGIC>MOL_PROPERTY
Idih
SciTegic.value.DoubleValue
0.000

@<SCITEGIC>MOL_PROPERTY
Tether
SciTegic.value.DoubleValue
0.000

@<TRIPOS>MOLECULE
guest-5_confgen4.mol2 : confsearch ligand conformer 326
          22          22           1
SMALL
USER_CHARGES
 
@<TRIPOS>ATOM
       1    C1      19.333145   21.006059   22.949683 C.3        1 MOL1        -0.1685
       2    H1      19.081763   22.057590   23.143690 H          1 MOL1         0.0832
       3    H2      18.469002   20.574333   22.426189 H          1 MOL1         0.0832
       4    C2      19.549332   20.311266   24.312736 C.3        1 MOL1        -0.1685
       5    H3      20.452629   20.713499   24.791113 H          1 MOL1         0.0832
       6    H4      18.714604   20.573949   24.976653 H          1 MOL1         0.0832
       7    C3      19.645426   18.771427   24.242865 C.3        1 MOL1        -0.1685
       8    H5      18.667433   18.356514   23.964896 H          1 MOL1         0.0832
       9    H6      19.845577   18.398620   25.256315 H          1 MOL1         0.0832
      10    C4      20.744761   18.221261   23.294200 C.3        1 MOL1        -0.1761
      11    H7      21.708926   18.693761   23.520890 H          1 MOL1         0.0832
      12    H8      20.876416   17.155581   23.521306 H          1 MOL1         0.0832
      13    C5      20.448844   18.331369   21.776195 C.3        1 MOL1         0.1218
      14    H9      21.134210   17.636076   21.270114 H          1 MOL1         0.0789
      15    C6      20.697020   19.722613   21.137455 C.3        1 MOL1        -0.1761
      16    H10     21.703836   19.719692   20.699990 H          1 MOL1         0.0832
      17    H11     20.014152   19.853055   20.287662 H          1 MOL1         0.0832
      18    C7      20.590798   20.966846   22.053697 C.3        1 MOL1        -0.1685
      19    H12     21.492662   21.050657   22.675011 H          1 MOL1         0.0832
      20    H13     20.592209   21.857882   21.411257 H          1 MOL1         0.0832
      21    O1      19.118160   17.905322   21.495687 O.3        1 MOL1        -0.5509
      22    H14     19.002983   17.958259   20.525202 H          1 MOL1         0.3779
@<TRIPOS>BOND
    1     1     2    1
    2     1     3    1
    3     1     4    1
    4     4     5    1
    5     4     6    1
    6     4     7    1
    7     7     8    1
    8     7     9    1
    9     7    10    1
   10    10    11    1
   11    10    12    1
   12    10    13    1
   13    13    14    1
   14    13    15    1
   15    15    16    1
   16    15    17    1
   17     1    18    1
   18    15    18    1
   19    18    19    1
   20    18    20    1
   21    13    21    1
   22    21    22    1
@<TRIPOS>SUBSTRUCTURE
       1 MOL1            1 RESIDUE      1      MOL     
@<SCITEGIC>MOL_PROPERTY
VConf Rank
SciTegic.value.IntegerValue
326

@<SCITEGIC>MOL_PROPERTY
Conf_Id
SciTegic.value.IntegerValue
104

@<SCITEGIC>MOL_PROPERTY
Delta U+W
SciTegic.value.DoubleValue
-1.172

@<SCITEGIC>MOL_PROPERTY
U+W
SciTegic.value.DoubleValue
5.252

@<SCITEGIC>MOL_PROPERTY
Grad RMS
SciTegic.value.DoubleValue
0.000000

@<SCITEGIC>MOL_PROPERTY
U
SciTegic.value.DoubleValue
7.482

@<SCITEGIC>MOL_PROPERTY
W
SciTegic.value.DoubleValue
-2.230

@<SCITEGIC>MOL_PROPERTY
W(PB)
SciTegic.value.DoubleValue
-4.220

@<SCITEGIC>MOL_PROPERTY
W(SA)
SciTegic.value.DoubleValue
1.990

@<SCITEGIC>MOL_PROPERTY
Valence
SciTegic.value.DoubleValue
12.309

@<SCITEGIC>MOL_PROPERTY
Coulomb
SciTegic.value.DoubleValue
-7.084

@<SCITEGIC>MOL_PROPERTY
VdW
SciTegic.value.DoubleValue
2.258

@<SCITEGIC>MOL_PROPERTY
VdW6
SciTegic.value.DoubleValue
-9.770

@<SCITEGIC>MOL_PROPERTY
VdW12
SciTegic.value.DoubleValue
12.028

@<SCITEGIC>MOL_PROPERTY
Bond
SciTegic.value.DoubleValue
0.284

@<SCITEGIC>MOL_PROPERTY
Angle
SciTegic.value.DoubleValue
3.491

@<SCITEGIC>MOL_PROPERTY
Pdih
SciTegic.value.DoubleValue
8.535

@<SCITEGIC>MOL_PROPERTY
Idih
SciTegic.value.DoubleValue
0.000

@<SCITEGIC>MOL_PROPERTY
Tether
SciTegic.value.DoubleValue
0.000

@<TRIPOS>MOLECULE
guest-5_confgen4.mol2 : confsearch ligand conformer 327
          22          22           1
SMALL
USER_CHARGES
 
@<TRIPOS>ATOM
       1    C1      21.535444   18.939555   22.322246 C.3        1 MOL1        -0.1685
       2    H1      21.181171   17.907380   22.447102 H          1 MOL1         0.0832
       3    H2      22.605139   18.865018   22.083214 H          1 MOL1         0.0832
       4    C2      21.400098   19.733230   23.641809 C.3        1 MOL1        -0.1685
       5    H3      22.239664   19.466742   24.298591 H          1 MOL1         0.0832
       6    H4      21.528827   20.804107   23.436898 H          1 MOL1         0.0832
       7    C3      20.088789   19.500116   24.434148 C.3        1 MOL1        -0.1685
       8    H5      19.894731   20.386395   25.053959 H          1 MOL1         0.0832
       9    H6      20.253585   18.678526   25.144613 H          1 MOL1         0.0832
      10    C4      18.813392   19.161739   23.615573 C.3        1 MOL1        -0.1761
      11    H7      18.842269   18.102874   23.327603 H          1 MOL1         0.0832
      12    H8      17.947417   19.254566   24.283759 H          1 MOL1         0.0832
      13    C5      18.539949   20.012078   22.353776 C.3        1 MOL1         0.1218
      14    H9      17.465725   19.933479   22.132989 H          1 MOL1         0.0789
      15    C6      19.291396   19.494263   21.106594 C.3        1 MOL1        -0.1761
      16    H10     19.025639   18.441018   20.948134 H          1 MOL1         0.0832
      17    H11     18.908117   20.030934   20.228911 H          1 MOL1         0.0832
      18    C7      20.834550   19.625109   21.125257 C.3        1 MOL1        -0.1685
      19    H12     21.220989   19.179976   20.198308 H          1 MOL1         0.0832
      20    H13     21.118954   20.685254   21.084208 H          1 MOL1         0.0832
      21    O1      18.863970   21.373451   22.590089 O.3        1 MOL1        -0.5509
      22    H14     19.803894   21.351710   22.859079 H          1 MOL1         0.3779
@<TRIPOS>BOND
    1     1     2    1
    2     1     3    1
    3     1     4    1
    4     4     5    1
    5     4     6    1
    6     4     7    1
    7     7     8    1
    8     7     9    1
    9     7    10    1
   10    10    11    1
   11    10    12    1
   12    10    13    1
   13    13    14    1
   14    13    15    1
   15    15    16    1
   16    15    17    1
   17     1    18    1
   18    15    18    1
   19    18    19    1
   20    18    20    1
   21    13    21    1
   22    21    22    1
@<TRIPOS>SUBSTRUCTURE
       1 MOL1            1 RESIDUE      1      MOL     
@<SCITEGIC>MOL_PROPERTY
VConf Rank
SciTegic.value.IntegerValue
327

@<SCITEGIC>MOL_PROPERTY
Conf_Id
SciTegic.value.IntegerValue
99

@<SCITEGIC>MOL_PROPERTY
Delta U+W
SciTegic.value.DoubleValue
-3.852

@<SCITEGIC>MOL_PROPERTY
U+W
SciTegic.value.DoubleValue
2.572

@<SCITEGIC>MOL_PROPERTY
Grad RMS
SciTegic.value.DoubleValue
0.000000

@<SCITEGIC>MOL_PROPERTY
U
SciTegic.value.DoubleValue
3.922

@<SCITEGIC>MOL_PROPERTY
W
SciTegic.value.DoubleValue
-1.350

@<SCITEGIC>MOL_PROPERTY
W(PB)
SciTegic.value.DoubleValue
-3.345

@<SCITEGIC>MOL_PROPERTY
W(SA)
SciTegic.value.DoubleValue
1.995

@<SCITEGIC>MOL_PROPERTY
Valence
SciTegic.value.DoubleValue
12.571

@<SCITEGIC>MOL_PROPERTY
Coulomb
SciTegic.value.DoubleValue
-10.581

@<SCITEGIC>MOL_PROPERTY
VdW
SciTegic.value.DoubleValue
1.932

@<SCITEGIC>MOL_PROPERTY
VdW6
SciTegic.value.DoubleValue
-10.483

@<SCITEGIC>MOL_PROPERTY
VdW12
SciTegic.value.DoubleValue
12.415

@<SCITEGIC>MOL_PROPERTY
Bond
SciTegic.value.DoubleValue
0.268

@<SCITEGIC>MOL_PROPERTY
Angle
SciTegic.value.DoubleValue
3.728

@<SCITEGIC>MOL_PROPERTY
Pdih
SciTegic.value.DoubleValue
8.575

@<SCITEGIC>MOL_PROPERTY
Idih
SciTegic.value.DoubleValue
0.000

@<SCITEGIC>MOL_PROPERTY
Tether
SciTegic.value.DoubleValue
0.000

@<TRIPOS>MOLECULE
guest-5_confgen4.mol2 : confsearch ligand conformer 328
          22          22           1
SMALL
USER_CHARGES
 
@<TRIPOS>ATOM
       1    C1      19.194982   20.863175   23.302361 C.3        1 MOL1        -0.1685
       2    H1      18.393734   21.612073   23.235687 H          1 MOL1         0.0832
       3    H2      19.642412   21.014841   24.293753 H          1 MOL1         0.0832
       4    C2      20.237091   21.178623   22.189548 C.3        1 MOL1        -0.1685
       5    H3      19.886982   22.064152   21.641322 H          1 MOL1         0.0832
       6    H4      21.191143   21.483486   22.639989 H          1 MOL1         0.0832
       7    C3      20.488153   20.051688   21.155268 C.3        1 MOL1        -0.1685
       8    H5      21.083211   20.465404   20.329755 H          1 MOL1         0.0832
       9    H6      19.538981   19.757528   20.690390 H          1 MOL1         0.0832
      10    C4      21.224832   18.790899   21.686818 C.3        1 MOL1        -0.1761
      11    H7      20.995702   17.951992   21.017134 H          1 MOL1         0.0832
      12    H8      22.306363   18.953801   21.588077 H          1 MOL1         0.0832
      13    C5      20.951706   18.343432   23.143984 C.3        1 MOL1         0.1218
      14    H9      21.373061   17.333731   23.252315 H          1 MOL1         0.0789
      15    C6      19.464502   18.258043   23.567160 C.3        1 MOL1        -0.1761
      16    H10     19.027364   17.356031   23.119918 H          1 MOL1         0.0832
      17    H11     19.438509   18.085949   24.651460 H          1 MOL1         0.0832
      18    C7      18.537203   19.461015   23.238870 C.3        1 MOL1        -0.1685
      19    H12     18.073560   19.313644   22.255568 H          1 MOL1         0.0832
      20    H13     17.696893   19.440232   23.946099 H          1 MOL1         0.0832
      21    O1      21.654207   19.188816   24.041236 O.3        1 MOL1        -0.5509
      22    H14     21.245278   20.067348   23.907477 H          1 MOL1         0.3779
@<TRIPOS>BOND
    1     1     2    1
    2     1     3    1
    3     1     4    1
    4     4     5    1
    5     4     6    1
    6     4     7    1
    7     7     8    1
    8     7     9    1
    9     7    10    1
   10    10    11    1
   11    10    12    1
   12    10    13    1
   13    13    14    1
   14    13    15    1
   15    15    16    1
   16    15    17    1
   17     1    18    1
   18    15    18    1
   19    18    19    1
   20    18    20    1
   21    13    21    1
   22    21    22    1
@<TRIPOS>SUBSTRUCTURE
       1 MOL1            1 RESIDUE      1      MOL     
@<SCITEGIC>MOL_PROPERTY
VConf Rank
SciTegic.value.IntegerValue
328

@<SCITEGIC>MOL_PROPERTY
Conf_Id
SciTegic.value.IntegerValue
98

@<SCITEGIC>MOL_PROPERTY
Delta U+W
SciTegic.value.DoubleValue
0.930

@<SCITEGIC>MOL_PROPERTY
U+W
SciTegic.value.DoubleValue
7.353

@<SCITEGIC>MOL_PROPERTY
Grad RMS
SciTegic.value.DoubleValue
0.000000

@<SCITEGIC>MOL_PROPERTY
U
SciTegic.value.DoubleValue
8.455

@<SCITEGIC>MOL_PROPERTY
W
SciTegic.value.DoubleValue
-1.102

@<SCITEGIC>MOL_PROPERTY
W(PB)
SciTegic.value.DoubleValue
-3.101

@<SCITEGIC>MOL_PROPERTY
W(SA)
SciTegic.value.DoubleValue
2.000

@<SCITEGIC>MOL_PROPERTY
Valence
SciTegic.value.DoubleValue
15.601

@<SCITEGIC>MOL_PROPERTY
Coulomb
SciTegic.value.DoubleValue
-10.573

@<SCITEGIC>MOL_PROPERTY
VdW
SciTegic.value.DoubleValue
3.427

@<SCITEGIC>MOL_PROPERTY
VdW6
SciTegic.value.DoubleValue
-11.360

@<SCITEGIC>MOL_PROPERTY
VdW12
SciTegic.value.DoubleValue
14.787

@<SCITEGIC>MOL_PROPERTY
Bond
SciTegic.value.DoubleValue
0.471

@<SCITEGIC>MOL_PROPERTY
Angle
SciTegic.value.DoubleValue
5.445

@<SCITEGIC>MOL_PROPERTY
Pdih
SciTegic.value.DoubleValue
9.685

@<SCITEGIC>MOL_PROPERTY
Idih
SciTegic.value.DoubleValue
0.000

@<SCITEGIC>MOL_PROPERTY
Tether
SciTegic.value.DoubleValue
0.000

@<TRIPOS>MOLECULE
guest-5_confgen4.mol2 : confsearch ligand conformer 329
          22          22           1
SMALL
USER_CHARGES
 
@<TRIPOS>ATOM
       1    C1      19.722923   19.555072   24.348606 C.3        1 MOL1        -0.1685
       2    H1      18.693689   19.856036   24.114343 H          1 MOL1         0.0832
       3    H2      19.747644   19.450737   25.441865 H          1 MOL1         0.0832
       4    C2      20.704590   20.682081   23.938315 C.3        1 MOL1        -0.1685
       5    H3      20.420716   21.586293   24.493916 H          1 MOL1         0.0832
       6    H4      21.717767   20.429344   24.279228 H          1 MOL1         0.0832
       7    C3      20.748490   21.037612   22.426259 C.3        1 MOL1        -0.1685
       8    H5      21.647650   20.609111   21.964834 H          1 MOL1         0.0832
       9    H6      20.874045   22.124942   22.333615 H          1 MOL1         0.0832
      10    C4      19.496988   20.610810   21.614290 C.3        1 MOL1        -0.1761
      11    H7      18.596941   20.988176   22.115425 H          1 MOL1         0.0832
      12    H8      19.519644   21.130664   20.647012 H          1 MOL1         0.0832
      13    C5      19.338816   19.082738   21.361610 C.3        1 MOL1         0.1218
      14    H9      18.296106   18.809557   21.578855 H          1 MOL1         0.0789
      15    C6      20.263540   18.159589   22.194041 C.3        1 MOL1        -0.1761
      16    H10     20.145858   17.126826   21.841041 H          1 MOL1         0.0832
      17    H11     21.312205   18.411163   21.995037 H          1 MOL1         0.0832
      18    C7      20.011139   18.170341   23.722434 C.3        1 MOL1        -0.1685
      19    H12     19.162092   17.510452   23.947113 H          1 MOL1         0.0832
      20    H13     20.881011   17.722856   24.222185 H          1 MOL1         0.0832
      21    O1      19.602796   18.823522   19.987456 O.3        1 MOL1        -0.5509
      22    H14     19.440604   17.867880   19.843859 H          1 MOL1         0.3779
@<TRIPOS>BOND
    1     1     2    1
    2     1     3    1
    3     1     4    1
    4     4     5    1
    5     4     6    1
    6     4     7    1
    7     7     8    1
    8     7     9    1
    9     7    10    1
   10    10    11    1
   11    10    12    1
   12    10    13    1
   13    13    14    1
   14    13    15    1
   15    15    16    1
   16    15    17    1
   17     1    18    1
   18    15    18    1
   19    18    19    1
   20    18    20    1
   21    13    21    1
   22    21    22    1
@<TRIPOS>SUBSTRUCTURE
       1 MOL1            1 RESIDUE      1      MOL     
@<SCITEGIC>MOL_PROPERTY
VConf Rank
SciTegic.value.IntegerValue
329

@<SCITEGIC>MOL_PROPERTY
Conf_Id
SciTegic.value.IntegerValue
141

@<SCITEGIC>MOL_PROPERTY
Delta U+W
SciTegic.value.DoubleValue
0.000

@<SCITEGIC>MOL_PROPERTY
U+W
SciTegic.value.DoubleValue
6.423

@<SCITEGIC>MOL_PROPERTY
Grad RMS
SciTegic.value.DoubleValue
0.000000

@<SCITEGIC>MOL_PROPERTY
U
SciTegic.value.DoubleValue
8.781

@<SCITEGIC>MOL_PROPERTY
W
SciTegic.value.DoubleValue
-2.358

@<SCITEGIC>MOL_PROPERTY
W(PB)
SciTegic.value.DoubleValue
-4.373

@<SCITEGIC>MOL_PROPERTY
W(SA)
SciTegic.value.DoubleValue
2.015

@<SCITEGIC>MOL_PROPERTY
Valence
SciTegic.value.DoubleValue
13.328

@<SCITEGIC>MOL_PROPERTY
Coulomb
SciTegic.value.DoubleValue
-8.387

@<SCITEGIC>MOL_PROPERTY
VdW
SciTegic.value.DoubleValue
3.840

@<SCITEGIC>MOL_PROPERTY
VdW6
SciTegic.value.DoubleValue
-9.744

@<SCITEGIC>MOL_PROPERTY
VdW12
SciTegic.value.DoubleValue
13.584

@<SCITEGIC>MOL_PROPERTY
Bond
SciTegic.value.DoubleValue
0.436

@<SCITEGIC>MOL_PROPERTY
Angle
SciTegic.value.DoubleValue
3.478

@<SCITEGIC>MOL_PROPERTY
Pdih
SciTegic.value.DoubleValue
9.415

@<SCITEGIC>MOL_PROPERTY
Idih
SciTegic.value.DoubleValue
0.000

@<SCITEGIC>MOL_PROPERTY
Tether
SciTegic.value.DoubleValue
0.000

@<TRIPOS>MOLECULE
guest-5_confgen4.mol2 : confsearch ligand conformer 330
          22          22           1
SMALL
USER_CHARGES
 
@<TRIPOS>ATOM
       1    C1      19.846625   20.248669   21.036155 C.3        1 MOL1        -0.1685
       2    H1      20.187943   21.221603   21.414983 H          1 MOL1         0.0832
       3    H2      19.727781   20.370135   19.950786 H          1 MOL1         0.0832
       4    C2      18.461862   19.881393   21.621983 C.3        1 MOL1        -0.1685
       5    H3      17.712359   20.568015   21.205271 H          1 MOL1         0.0832
       6    H4      18.173981   18.879445   21.275422 H          1 MOL1         0.0832
       7    C3      18.362403   19.937215   23.163840 C.3        1 MOL1        -0.1685
       8    H5      17.360701   19.592792   23.455032 H          1 MOL1         0.0832
       9    H6      18.428157   20.982316   23.496103 H          1 MOL1         0.0832
      10    C4      19.415299   19.089067   23.918316 C.3        1 MOL1        -0.1761
      11    H7      19.100508   19.026366   24.968297 H          1 MOL1         0.0832
      12    H8      19.425374   18.058492   23.540412 H          1 MOL1         0.0832
      13    C5      20.832045   19.702630   23.855088 C.3        1 MOL1         0.1218
      14    H9      20.732298   20.797332   23.832259 H          1 MOL1         0.0789
      15    C6      21.666579   19.266055   22.629424 C.3        1 MOL1        -0.1761
      16    H10     22.488750   19.984347   22.515662 H          1 MOL1         0.0832
      17    H11     22.140195   18.297532   22.838614 H          1 MOL1         0.0832
      18    C7      20.912733   19.155175   21.280548 C.3        1 MOL1        -0.1685
      19    H12     21.655712   19.194304   20.472293 H          1 MOL1         0.0832
      20    H13     20.444529   18.164585   21.201649 H          1 MOL1         0.0832
      21    O1      21.545063   19.331544   25.028595 O.3        1 MOL1        -0.5509
      22    H14     21.038161   19.683494   25.790041 H          1 MOL1         0.3779
@<TRIPOS>BOND
    1     1     2    1
    2     1     3    1
    3     1     4    1
    4     4     5    1
    5     4     6    1
    6     4     7    1
    7     7     8    1
    8     7     9    1
    9     7    10    1
   10    10    11    1
   11    10    12    1
   12    10    13    1
   13    13    14    1
   14    13    15    1
   15    15    16    1
   16    15    17    1
   17     1    18    1
   18    15    18    1
   19    18    19    1
   20    18    20    1
   21    13    21    1
   22    21    22    1
@<TRIPOS>SUBSTRUCTURE
       1 MOL1            1 RESIDUE      1      MOL     
@<SCITEGIC>MOL_PROPERTY
VConf Rank
SciTegic.value.IntegerValue
330

@<SCITEGIC>MOL_PROPERTY
Conf_Id
SciTegic.value.IntegerValue
144

@<SCITEGIC>MOL_PROPERTY
Delta U+W
SciTegic.value.DoubleValue
-3.291

@<SCITEGIC>MOL_PROPERTY
U+W
SciTegic.value.DoubleValue
3.132

@<SCITEGIC>MOL_PROPERTY
Grad RMS
SciTegic.value.DoubleValue
0.000000

@<SCITEGIC>MOL_PROPERTY
U
SciTegic.value.DoubleValue
5.411

@<SCITEGIC>MOL_PROPERTY
W
SciTegic.value.DoubleValue
-2.279

@<SCITEGIC>MOL_PROPERTY
W(PB)
SciTegic.value.DoubleValue
-4.300

@<SCITEGIC>MOL_PROPERTY
W(SA)
SciTegic.value.DoubleValue
2.021

@<SCITEGIC>MOL_PROPERTY
Valence
SciTegic.value.DoubleValue
11.909

@<SCITEGIC>MOL_PROPERTY
Coulomb
SciTegic.value.DoubleValue
-8.733

@<SCITEGIC>MOL_PROPERTY
VdW
SciTegic.value.DoubleValue
2.236

@<SCITEGIC>MOL_PROPERTY
VdW6
SciTegic.value.DoubleValue
-8.936

@<SCITEGIC>MOL_PROPERTY
VdW12
SciTegic.value.DoubleValue
11.172

@<SCITEGIC>MOL_PROPERTY
Bond
SciTegic.value.DoubleValue
0.223

@<SCITEGIC>MOL_PROPERTY
Angle
SciTegic.value.DoubleValue
2.457

@<SCITEGIC>MOL_PROPERTY
Pdih
SciTegic.value.DoubleValue
9.228

@<SCITEGIC>MOL_PROPERTY
Idih
SciTegic.value.DoubleValue
0.000

@<SCITEGIC>MOL_PROPERTY
Tether
SciTegic.value.DoubleValue
0.000

@<TRIPOS>MOLECULE
guest-5_confgen4.mol2 : confsearch ligand conformer 331
          22          22           1
SMALL
USER_CHARGES
 
@<TRIPOS>ATOM
       1    C1      20.477399   18.718771   24.073969 C.3        1 MOL1        -0.1685
       2    H1      21.029278   18.396881   24.967674 H          1 MOL1         0.0832
       3    H2      19.627580   18.029514   23.976942 H          1 MOL1         0.0832
       4    C2      21.425308   18.599566   22.857691 C.3        1 MOL1        -0.1685
       5    H3      22.065080   19.490963   22.804061 H          1 MOL1         0.0832
       6    H4      22.110624   17.756847   23.022510 H          1 MOL1         0.0832
       7    C3      20.721865   18.382494   21.496085 C.3        1 MOL1        -0.1685
       8    H5      20.502999   17.312935   21.373377 H          1 MOL1         0.0832
       9    H6      21.434432   18.634366   20.698698 H          1 MOL1         0.0832
      10    C4      19.409660   19.172412   21.267421 C.3        1 MOL1        -0.1761
      11    H7      19.211540   19.188948   20.187169 H          1 MOL1         0.0832
      12    H8      18.573544   18.619633   21.714904 H          1 MOL1         0.0832
      13    C5      19.416190   20.618219   21.812573 C.3        1 MOL1         0.1218
      14    H9      20.424260   21.045056   21.712204 H          1 MOL1         0.0789
      15    C6      18.964293   20.696987   23.288569 C.3        1 MOL1        -0.1761
      16    H10     18.747477   21.745145   23.534509 H          1 MOL1         0.0832
      17    H11     18.017792   20.154634   23.411345 H          1 MOL1         0.0832
      18    C7      19.989802   20.166994   24.318693 C.3        1 MOL1        -0.1685
      19    H12     20.855377   20.842744   24.351358 H          1 MOL1         0.0832
      20    H13     19.532225   20.218649   25.316061 H          1 MOL1         0.0832
      21    O1      18.510654   21.392167   21.037189 O.3        1 MOL1        -0.5509
      22    H14     17.628693   20.981700   21.150426 H          1 MOL1         0.3779
@<TRIPOS>BOND
    1     1     2    1
    2     1     3    1
    3     1     4    1
    4     4     5    1
    5     4     6    1
    6     4     7    1
    7     7     8    1
    8     7     9    1
    9     7    10    1
   10    10    11    1
   11    10    12    1
   12    10    13    1
   13    13    14    1
   14    13    15    1
   15    15    16    1
   16    15    17    1
   17     1    18    1
   18    15    18    1
   19    18    19    1
   20    18    20    1
   21    13    21    1
   22    21    22    1
@<TRIPOS>SUBSTRUCTURE
       1 MOL1            1 RESIDUE      1      MOL     
@<SCITEGIC>MOL_PROPERTY
VConf Rank
SciTegic.value.IntegerValue
331

@<SCITEGIC>MOL_PROPERTY
Conf_Id
SciTegic.value.IntegerValue
76

@<SCITEGIC>MOL_PROPERTY
Delta U+W
SciTegic.value.DoubleValue
-3.175

@<SCITEGIC>MOL_PROPERTY
U+W
SciTegic.value.DoubleValue
3.248

@<SCITEGIC>MOL_PROPERTY
Grad RMS
SciTegic.value.DoubleValue
0.000000

@<SCITEGIC>MOL_PROPERTY
U
SciTegic.value.DoubleValue
5.336

@<SCITEGIC>MOL_PROPERTY
W
SciTegic.value.DoubleValue
-2.088

@<SCITEGIC>MOL_PROPERTY
W(PB)
SciTegic.value.DoubleValue
-4.098

@<SCITEGIC>MOL_PROPERTY
W(SA)
SciTegic.value.DoubleValue
2.010

@<SCITEGIC>MOL_PROPERTY
Valence
SciTegic.value.DoubleValue
12.390

@<SCITEGIC>MOL_PROPERTY
Coulomb
SciTegic.value.DoubleValue
-9.270

@<SCITEGIC>MOL_PROPERTY
VdW
SciTegic.value.DoubleValue
2.216

@<SCITEGIC>MOL_PROPERTY
VdW6
SciTegic.value.DoubleValue
-8.967

@<SCITEGIC>MOL_PROPERTY
VdW12
SciTegic.value.DoubleValue
11.183

@<SCITEGIC>MOL_PROPERTY
Bond
SciTegic.value.DoubleValue
0.218

@<SCITEGIC>MOL_PROPERTY
Angle
SciTegic.value.DoubleValue
2.426

@<SCITEGIC>MOL_PROPERTY
Pdih
SciTegic.value.DoubleValue
9.745

@<SCITEGIC>MOL_PROPERTY
Idih
SciTegic.value.DoubleValue
0.000

@<SCITEGIC>MOL_PROPERTY
Tether
SciTegic.value.DoubleValue
0.000

@<TRIPOS>MOLECULE
guest-5_confgen4.mol2 : confsearch ligand conformer 332
          22          22           1
SMALL
USER_CHARGES
 
@<TRIPOS>ATOM
       1    C1      21.459815   20.254935   21.640876 C.3        1 MOL1        -0.1685
       2    H1      22.372617   19.735992   21.317967 H          1 MOL1         0.0832
       3    H2      21.489775   21.240290   21.156115 H          1 MOL1         0.0832
       4    C2      21.529876   20.448312   23.174621 C.3        1 MOL1        -0.1685
       5    H3      22.008291   19.572301   23.633099 H          1 MOL1         0.0832
       6    H4      22.203275   21.291613   23.379952 H          1 MOL1         0.0832
       7    C3      20.170691   20.711693   23.863670 C.3        1 MOL1        -0.1685
       8    H5      19.526001   21.340872   23.234906 H          1 MOL1         0.0832
       9    H6      20.358679   21.287792   24.779673 H          1 MOL1         0.0832
      10    C4      19.440423   19.406098   24.268898 C.3        1 MOL1        -0.1761
      11    H7      20.130932   18.766972   24.833902 H          1 MOL1         0.0832
      12    H8      18.633339   19.659046   24.968932 H          1 MOL1         0.0832
      13    C5      18.828433   18.579462   23.115105 C.3        1 MOL1         0.1218
      14    H9      18.517869   17.616308   23.545201 H          1 MOL1         0.0789
      15    C6      19.793935   18.265806   21.944672 C.3        1 MOL1        -0.1761
      16    H10     20.679746   17.740003   22.323814 H          1 MOL1         0.0832
      17    H11     19.288464   17.552914   21.280541 H          1 MOL1         0.0832
      18    C7      20.226521   19.492675   21.100350 C.3        1 MOL1        -0.1685
      19    H12     20.458497   19.156172   20.080852 H          1 MOL1         0.0832
      20    H13     19.385942   20.190582   20.991752 H          1 MOL1         0.0832
      21    O1      17.666458   19.242499   22.627030 O.3        1 MOL1        -0.5509
      22    H14     17.342644   18.715473   21.868299 H          1 MOL1         0.3779
@<TRIPOS>BOND
    1     1     2    1
    2     1     3    1
    3     1     4    1
    4     4     5    1
    5     4     6    1
    6     4     7    1
    7     7     8    1
    8     7     9    1
    9     7    10    1
   10    10    11    1
   11    10    12    1
   12    10    13    1
   13    13    14    1
   14    13    15    1
   15    15    16    1
   16    15    17    1
   17     1    18    1
   18    15    18    1
   19    18    19    1
   20    18    20    1
   21    13    21    1
   22    21    22    1
@<TRIPOS>SUBSTRUCTURE
       1 MOL1            1 RESIDUE      1      MOL     
@<SCITEGIC>MOL_PROPERTY
VConf Rank
SciTegic.value.IntegerValue
332

@<SCITEGIC>MOL_PROPERTY
Conf_Id
SciTegic.value.IntegerValue
95

@<SCITEGIC>MOL_PROPERTY
Delta U+W
SciTegic.value.DoubleValue
-2.289

@<SCITEGIC>MOL_PROPERTY
U+W
SciTegic.value.DoubleValue
4.134

@<SCITEGIC>MOL_PROPERTY
Grad RMS
SciTegic.value.DoubleValue
0.000000

@<SCITEGIC>MOL_PROPERTY
U
SciTegic.value.DoubleValue
6.373

@<SCITEGIC>MOL_PROPERTY
W
SciTegic.value.DoubleValue
-2.240

@<SCITEGIC>MOL_PROPERTY
W(PB)
SciTegic.value.DoubleValue
-4.254

@<SCITEGIC>MOL_PROPERTY
W(SA)
SciTegic.value.DoubleValue
2.015

@<SCITEGIC>MOL_PROPERTY
Valence
SciTegic.value.DoubleValue
12.093

@<SCITEGIC>MOL_PROPERTY
Coulomb
SciTegic.value.DoubleValue
-8.058

@<SCITEGIC>MOL_PROPERTY
VdW
SciTegic.value.DoubleValue
2.339

@<SCITEGIC>MOL_PROPERTY
VdW6
SciTegic.value.DoubleValue
-9.683

@<SCITEGIC>MOL_PROPERTY
VdW12
SciTegic.value.DoubleValue
12.022

@<SCITEGIC>MOL_PROPERTY
Bond
SciTegic.value.DoubleValue
0.268

@<SCITEGIC>MOL_PROPERTY
Angle
SciTegic.value.DoubleValue
3.005

@<SCITEGIC>MOL_PROPERTY
Pdih
SciTegic.value.DoubleValue
8.820

@<SCITEGIC>MOL_PROPERTY
Idih
SciTegic.value.DoubleValue
0.000

@<SCITEGIC>MOL_PROPERTY
Tether
SciTegic.value.DoubleValue
0.000

@<TRIPOS>MOLECULE
guest-5_confgen4.mol2 : confsearch ligand conformer 333
          22          22           1
SMALL
USER_CHARGES
 
@<TRIPOS>ATOM
       1    C1      19.234835   17.989836   23.265053 C.3        1 MOL1        -0.1685
       2    H1      18.765661   17.219937   22.637450 H          1 MOL1         0.0832
       3    H2      19.181781   17.608551   24.293934 H          1 MOL1         0.0832
       4    C2      18.386011   19.279681   23.164424 C.3        1 MOL1        -0.1685
       5    H3      17.992865   19.380275   22.143739 H          1 MOL1         0.0832
       6    H4      17.504003   19.156436   23.807598 H          1 MOL1         0.0832
       7    C3      19.120735   20.580561   23.563682 C.3        1 MOL1        -0.1685
       8    H5      19.796297   20.406027   24.412195 H          1 MOL1         0.0832
       9    H6      18.369969   21.301284   23.914873 H          1 MOL1         0.0832
      10    C4      19.877588   21.227774   22.376417 C.3        1 MOL1        -0.1761
      11    H7      19.197479   21.308988   21.518657 H          1 MOL1         0.0832
      12    H8      20.132654   22.261283   22.644341 H          1 MOL1         0.0832
      13    C5      21.168157   20.510772   21.918078 C.3        1 MOL1         0.1218
      14    H9      21.477918   20.985788   20.976001 H          1 MOL1         0.0789
      15    C6      21.013249   18.995767   21.633305 C.3        1 MOL1        -0.1761
      16    H10     20.239091   18.834890   20.872197 H          1 MOL1         0.0832
      17    H11     21.953247   18.652921   21.181986 H          1 MOL1         0.0832
      18    C7      20.727813   18.116394   22.878565 C.3        1 MOL1        -0.1685
      19    H12     21.114921   17.105574   22.692538 H          1 MOL1         0.0832
      20    H13     21.298067   18.491190   23.738773 H          1 MOL1         0.0832
      21    O1      22.195095   20.725142   22.881580 O.3        1 MOL1        -0.5509
      22    H14     22.238900   21.690746   23.036104 H          1 MOL1         0.3779
@<TRIPOS>BOND
    1     1     2    1
    2     1     3    1
    3     1     4    1
    4     4     5    1
    5     4     6    1
    6     4     7    1
    7     7     8    1
    8     7     9    1
    9     7    10    1
   10    10    11    1
   11    10    12    1
   12    10    13    1
   13    13    14    1
   14    13    15    1
   15    15    16    1
   16    15    17    1
   17     1    18    1
   18    15    18    1
   19    18    19    1
   20    18    20    1
   21    13    21    1
   22    21    22    1
@<TRIPOS>SUBSTRUCTURE
       1 MOL1            1 RESIDUE      1      MOL     
@<SCITEGIC>MOL_PROPERTY
VConf Rank
SciTegic.value.IntegerValue
333

@<SCITEGIC>MOL_PROPERTY
Conf_Id
SciTegic.value.IntegerValue
41

@<SCITEGIC>MOL_PROPERTY
Delta U+W
SciTegic.value.DoubleValue
-2.114

@<SCITEGIC>MOL_PROPERTY
U+W
SciTegic.value.DoubleValue
4.310

@<SCITEGIC>MOL_PROPERTY
Grad RMS
SciTegic.value.DoubleValue
0.000000

@<SCITEGIC>MOL_PROPERTY
U
SciTegic.value.DoubleValue
6.598

@<SCITEGIC>MOL_PROPERTY
W
SciTegic.value.DoubleValue
-2.289

@<SCITEGIC>MOL_PROPERTY
W(PB)
SciTegic.value.DoubleValue
-4.294

@<SCITEGIC>MOL_PROPERTY
W(SA)
SciTegic.value.DoubleValue
2.005

@<SCITEGIC>MOL_PROPERTY
Valence
SciTegic.value.DoubleValue
12.082

@<SCITEGIC>MOL_PROPERTY
Coulomb
SciTegic.value.DoubleValue
-7.801

@<SCITEGIC>MOL_PROPERTY
VdW
SciTegic.value.DoubleValue
2.317

@<SCITEGIC>MOL_PROPERTY
VdW6
SciTegic.value.DoubleValue
-9.658

@<SCITEGIC>MOL_PROPERTY
VdW12
SciTegic.value.DoubleValue
11.975

@<SCITEGIC>MOL_PROPERTY
Bond
SciTegic.value.DoubleValue
0.267

@<SCITEGIC>MOL_PROPERTY
Angle
SciTegic.value.DoubleValue
3.051

@<SCITEGIC>MOL_PROPERTY
Pdih
SciTegic.value.DoubleValue
8.764

@<SCITEGIC>MOL_PROPERTY
Idih
SciTegic.value.DoubleValue
0.000

@<SCITEGIC>MOL_PROPERTY
Tether
SciTegic.value.DoubleValue
0.000

@<TRIPOS>MOLECULE
guest-5_confgen4.mol2 : confsearch ligand conformer 334
          22          22           1
SMALL
USER_CHARGES
 
@<TRIPOS>ATOM
       1    C1      21.471728   20.451118   22.568786 C.3        1 MOL1        -0.1685
       2    H1      22.221943   21.251886   22.518806 H          1 MOL1         0.0832
       3    H2      22.027277   19.518884   22.740489 H          1 MOL1         0.0832
       4    C2      20.735340   20.406281   21.211175 C.3        1 MOL1        -0.1685
       5    H3      20.137352   21.319296   21.087096 H          1 MOL1         0.0832
       6    H4      21.482438   20.423938   20.406133 H          1 MOL1         0.0832
       7    C3      19.834327   19.168565   21.007571 C.3        1 MOL1        -0.1685
       8    H5      20.460834   18.270964   20.919867 H          1 MOL1         0.0832
       9    H6      19.331583   19.272121   20.036670 H          1 MOL1         0.0832
      10    C4      18.750183   18.954957   22.098530 C.3        1 MOL1        -0.1761
      11    H7      18.173075   19.877282   22.241782 H          1 MOL1         0.0832
      12    H8      18.035680   18.214779   21.716163 H          1 MOL1         0.0832
      13    C5      19.258226   18.434155   23.467723 C.3        1 MOL1         0.1218
      14    H9      18.380942   18.038471   23.999780 H          1 MOL1         0.0789
      15    C6      19.887432   19.497434   24.405101 C.3        1 MOL1        -0.1761
      16    H10     19.107114   19.845615   25.094256 H          1 MOL1         0.0832
      17    H11     20.638988   19.012863   25.042146 H          1 MOL1         0.0832
      18    C7      20.524476   20.749042   23.751991 C.3        1 MOL1        -0.1685
      19    H12     19.736876   21.444396   23.431706 H          1 MOL1         0.0832
      20    H13     21.089591   21.282056   24.528662 H          1 MOL1         0.0832
      21    O1      20.172317   17.356552   23.282986 O.3        1 MOL1        -0.5509
      22    H14     20.426168   17.044974   24.175392 H          1 MOL1         0.3779
@<TRIPOS>BOND
    1     1     2    1
    2     1     3    1
    3     1     4    1
    4     4     5    1
    5     4     6    1
    6     4     7    1
    7     7     8    1
    8     7     9    1
    9     7    10    1
   10    10    11    1
   11    10    12    1
   12    10    13    1
   13    13    14    1
   14    13    15    1
   15    15    16    1
   16    15    17    1
   17     1    18    1
   18    15    18    1
   19    18    19    1
   20    18    20    1
   21    13    21    1
   22    21    22    1
@<TRIPOS>SUBSTRUCTURE
       1 MOL1            1 RESIDUE      1      MOL     
@<SCITEGIC>MOL_PROPERTY
VConf Rank
SciTegic.value.IntegerValue
334

@<SCITEGIC>MOL_PROPERTY
Conf_Id
SciTegic.value.IntegerValue
104

@<SCITEGIC>MOL_PROPERTY
Delta U+W
SciTegic.value.DoubleValue
-1.172

@<SCITEGIC>MOL_PROPERTY
U+W
SciTegic.value.DoubleValue
5.252

@<SCITEGIC>MOL_PROPERTY
Grad RMS
SciTegic.value.DoubleValue
0.000000

@<SCITEGIC>MOL_PROPERTY
U
SciTegic.value.DoubleValue
7.482

@<SCITEGIC>MOL_PROPERTY
W
SciTegic.value.DoubleValue
-2.230

@<SCITEGIC>MOL_PROPERTY
W(PB)
SciTegic.value.DoubleValue
-4.220

@<SCITEGIC>MOL_PROPERTY
W(SA)
SciTegic.value.DoubleValue
1.990

@<SCITEGIC>MOL_PROPERTY
Valence
SciTegic.value.DoubleValue
12.309

@<SCITEGIC>MOL_PROPERTY
Coulomb
SciTegic.value.DoubleValue
-7.084

@<SCITEGIC>MOL_PROPERTY
VdW
SciTegic.value.DoubleValue
2.258

@<SCITEGIC>MOL_PROPERTY
VdW6
SciTegic.value.DoubleValue
-9.770

@<SCITEGIC>MOL_PROPERTY
VdW12
SciTegic.value.DoubleValue
12.028

@<SCITEGIC>MOL_PROPERTY
Bond
SciTegic.value.DoubleValue
0.284

@<SCITEGIC>MOL_PROPERTY
Angle
SciTegic.value.DoubleValue
3.491

@<SCITEGIC>MOL_PROPERTY
Pdih
SciTegic.value.DoubleValue
8.535

@<SCITEGIC>MOL_PROPERTY
Idih
SciTegic.value.DoubleValue
0.000

@<SCITEGIC>MOL_PROPERTY
Tether
SciTegic.value.DoubleValue
0.000

@<TRIPOS>MOLECULE
guest-5_confgen4.mol2 : confsearch ligand conformer 335
          22          22           1
SMALL
USER_CHARGES
 
@<TRIPOS>ATOM
       1    C1      18.982797   18.569559   21.961213 C.3        1 MOL1        -0.1685
       2    H1      19.509086   17.669003   22.305454 H          1 MOL1         0.0832
       3    H2      18.127935   18.212730   21.370601 H          1 MOL1         0.0832
       4    C2      19.882613   19.412505   21.028873 C.3        1 MOL1        -0.1685
       5    H3      19.873233   18.958377   20.028409 H          1 MOL1         0.0832
       6    H4      19.436174   20.406360   20.893666 H          1 MOL1         0.0832
       7    C3      21.361736   19.552498   21.469635 C.3        1 MOL1        -0.1685
       8    H5      21.767213   20.477927   21.037796 H          1 MOL1         0.0832
       9    H6      21.939690   18.739168   21.009862 H          1 MOL1         0.0832
      10    C4      21.654992   19.530628   22.994340 C.3        1 MOL1        -0.1761
      11    H7      21.634699   18.491921   23.348785 H          1 MOL1         0.0832
      12    H8      22.689322   19.865870   23.145254 H          1 MOL1         0.0832
      13    C5      20.736797   20.382441   23.900603 C.3        1 MOL1         0.1218
      14    H9      21.287166   20.578082   24.832106 H          1 MOL1         0.0789
      15    C6      19.435705   19.648344   24.296241 C.3        1 MOL1        -0.1761
      16    H10     19.700607   18.695542   24.772746 H          1 MOL1         0.0832
      17    H11     18.933169   20.237998   25.074066 H          1 MOL1         0.0832
      18    C7      18.422233   19.375173   23.157363 C.3        1 MOL1        -0.1685
      19    H12     17.578810   18.815992   23.584754 H          1 MOL1         0.0832
      20    H13     17.997298   20.323493   22.801555 H          1 MOL1         0.0832
      21    O1      20.430177   21.620033   23.277289 O.3        1 MOL1        -0.5509
      22    H14     20.022257   21.363876   22.426248 H          1 MOL1         0.3779
@<TRIPOS>BOND
    1     1     2    1
    2     1     3    1
    3     1     4    1
    4     4     5    1
    5     4     6    1
    6     4     7    1
    7     7     8    1
    8     7     9    1
    9     7    10    1
   10    10    11    1
   11    10    12    1
   12    10    13    1
   13    13    14    1
   14    13    15    1
   15    15    16    1
   16    15    17    1
   17     1    18    1
   18    15    18    1
   19    18    19    1
   20    18    20    1
   21    13    21    1
   22    21    22    1
@<TRIPOS>SUBSTRUCTURE
       1 MOL1            1 RESIDUE      1      MOL     
@<SCITEGIC>MOL_PROPERTY
VConf Rank
SciTegic.value.IntegerValue
335

@<SCITEGIC>MOL_PROPERTY
Conf_Id
SciTegic.value.IntegerValue
99

@<SCITEGIC>MOL_PROPERTY
Delta U+W
SciTegic.value.DoubleValue
-3.852

@<SCITEGIC>MOL_PROPERTY
U+W
SciTegic.value.DoubleValue
2.572

@<SCITEGIC>MOL_PROPERTY
Grad RMS
SciTegic.value.DoubleValue
0.000000

@<SCITEGIC>MOL_PROPERTY
U
SciTegic.value.DoubleValue
3.922

@<SCITEGIC>MOL_PROPERTY
W
SciTegic.value.DoubleValue
-1.350

@<SCITEGIC>MOL_PROPERTY
W(PB)
SciTegic.value.DoubleValue
-3.345

@<SCITEGIC>MOL_PROPERTY
W(SA)
SciTegic.value.DoubleValue
1.995

@<SCITEGIC>MOL_PROPERTY
Valence
SciTegic.value.DoubleValue
12.571

@<SCITEGIC>MOL_PROPERTY
Coulomb
SciTegic.value.DoubleValue
-10.581

@<SCITEGIC>MOL_PROPERTY
VdW
SciTegic.value.DoubleValue
1.932

@<SCITEGIC>MOL_PROPERTY
VdW6
SciTegic.value.DoubleValue
-10.483

@<SCITEGIC>MOL_PROPERTY
VdW12
SciTegic.value.DoubleValue
12.415

@<SCITEGIC>MOL_PROPERTY
Bond
SciTegic.value.DoubleValue
0.268

@<SCITEGIC>MOL_PROPERTY
Angle
SciTegic.value.DoubleValue
3.728

@<SCITEGIC>MOL_PROPERTY
Pdih
SciTegic.value.DoubleValue
8.575

@<SCITEGIC>MOL_PROPERTY
Idih
SciTegic.value.DoubleValue
0.000

@<SCITEGIC>MOL_PROPERTY
Tether
SciTegic.value.DoubleValue
0.000

@<TRIPOS>MOLECULE
guest-5_confgen4.mol2 : confsearch ligand conformer 336
          22          22           1
SMALL
USER_CHARGES
 
@<TRIPOS>ATOM
       1    C1      19.843626   20.427196   21.252374 C.3        1 MOL1        -0.1685
       2    H1      20.177001   20.759850   20.259654 H          1 MOL1         0.0832
       3    H2      18.834110   20.844242   21.366409 H          1 MOL1         0.0832
       4    C2      20.802768   21.046984   22.310562 C.3        1 MOL1        -0.1685
       5    H3      21.551189   21.648033   21.775869 H          1 MOL1         0.0832
       6    H4      20.259469   21.765202   22.939086 H          1 MOL1         0.0832
       7    C3      21.562096   20.039603   23.211314 C.3        1 MOL1        -0.1685
       8    H5      22.335693   20.586688   23.767166 H          1 MOL1         0.0832
       9    H6      22.120476   19.331758   22.586224 H          1 MOL1         0.0832
      10    C4      20.697698   19.260944   24.241525 C.3        1 MOL1        -0.1761
      11    H7      21.235977   18.345345   24.518427 H          1 MOL1         0.0832
      12    H8      20.639950   19.853719   25.164173 H          1 MOL1         0.0832
      13    C5      19.251433   18.877411   23.842304 C.3        1 MOL1         0.1218
      14    H9      18.895281   18.153458   24.589180 H          1 MOL1         0.0789
      15    C6      19.076953   18.214051   22.453904 C.3        1 MOL1        -0.1761
      16    H10     19.423449   17.174643   22.519572 H          1 MOL1         0.0832
      17    H11     17.999538   18.148395   22.251757 H          1 MOL1         0.0832
      18    C7      19.766172   18.879208   21.230244 C.3        1 MOL1        -0.1685
      19    H12     20.771348   18.459968   21.098235 H          1 MOL1         0.0832
      20    H13     19.218686   18.572604   20.328591 H          1 MOL1         0.0832
      21    O1      18.413820   20.019078   23.933101 O.3        1 MOL1        -0.5509
      22    H14     18.769137   20.627521   23.254514 H          1 MOL1         0.3779
@<TRIPOS>BOND
    1     1     2    1
    2     1     3    1
    3     1     4    1
    4     4     5    1
    5     4     6    1
    6     4     7    1
    7     7     8    1
    8     7     9    1
    9     7    10    1
   10    10    11    1
   11    10    12    1
   12    10    13    1
   13    13    14    1
   14    13    15    1
   15    15    16    1
   16    15    17    1
   17     1    18    1
   18    15    18    1
   19    18    19    1
   20    18    20    1
   21    13    21    1
   22    21    22    1
@<TRIPOS>SUBSTRUCTURE
       1 MOL1            1 RESIDUE      1      MOL     
@<SCITEGIC>MOL_PROPERTY
VConf Rank
SciTegic.value.IntegerValue
336

@<SCITEGIC>MOL_PROPERTY
Conf_Id
SciTegic.value.IntegerValue
98

@<SCITEGIC>MOL_PROPERTY
Delta U+W
SciTegic.value.DoubleValue
0.930

@<SCITEGIC>MOL_PROPERTY
U+W
SciTegic.value.DoubleValue
7.353

@<SCITEGIC>MOL_PROPERTY
Grad RMS
SciTegic.value.DoubleValue
0.000000

@<SCITEGIC>MOL_PROPERTY
U
SciTegic.value.DoubleValue
8.455

@<SCITEGIC>MOL_PROPERTY
W
SciTegic.value.DoubleValue
-1.102

@<SCITEGIC>MOL_PROPERTY
W(PB)
SciTegic.value.DoubleValue
-3.101

@<SCITEGIC>MOL_PROPERTY
W(SA)
SciTegic.value.DoubleValue
2.000

@<SCITEGIC>MOL_PROPERTY
Valence
SciTegic.value.DoubleValue
15.601

@<SCITEGIC>MOL_PROPERTY
Coulomb
SciTegic.value.DoubleValue
-10.573

@<SCITEGIC>MOL_PROPERTY
VdW
SciTegic.value.DoubleValue
3.427

@<SCITEGIC>MOL_PROPERTY
VdW6
SciTegic.value.DoubleValue
-11.360

@<SCITEGIC>MOL_PROPERTY
VdW12
SciTegic.value.DoubleValue
14.787

@<SCITEGIC>MOL_PROPERTY
Bond
SciTegic.value.DoubleValue
0.471

@<SCITEGIC>MOL_PROPERTY
Angle
SciTegic.value.DoubleValue
5.445

@<SCITEGIC>MOL_PROPERTY
Pdih
SciTegic.value.DoubleValue
9.685

@<SCITEGIC>MOL_PROPERTY
Idih
SciTegic.value.DoubleValue
0.000

@<SCITEGIC>MOL_PROPERTY
Tether
SciTegic.value.DoubleValue
0.000

@<TRIPOS>MOLECULE
guest-5_confgen4.mol2 : confsearch ligand conformer 337
          22          22           1
SMALL
USER_CHARGES
 
@<TRIPOS>ATOM
       1    C1      19.178202   18.512765   23.755128 C.3        1 MOL1        -0.1685
       2    H1      19.960473   18.748137   24.488227 H          1 MOL1         0.0832
       3    H2      18.464441   17.875343   24.294526 H          1 MOL1         0.0832
       4    C2      19.784415   17.695032   22.586377 C.3        1 MOL1        -0.1685
       5    H3      20.215638   16.778914   23.012579 H          1 MOL1         0.0832
       6    H4      18.981122   17.361457   21.915504 H          1 MOL1         0.0832
       7    C3      20.885850   18.404464   21.750797 C.3        1 MOL1        -0.1685
       8    H5      20.470996   18.745112   20.793264 H          1 MOL1         0.0832
       9    H6      21.644801   17.657800   21.480390 H          1 MOL1         0.0832
      10    C4      21.587755   19.591599   22.461959 C.3        1 MOL1        -0.1761
      11    H7      21.944398   19.261842   23.445672 H          1 MOL1         0.0832
      12    H8      22.498737   19.839913   21.900854 H          1 MOL1         0.0832
      13    C5      20.734198   20.882242   22.633864 C.3        1 MOL1         0.1218
      14    H9      20.861125   21.237298   23.666769 H          1 MOL1         0.0789
      15    C6      19.217147   20.732435   22.357510 C.3        1 MOL1        -0.1761
      16    H10     18.749923   21.725215   22.391359 H          1 MOL1         0.0832
      17    H11     19.062093   20.379210   21.330972 H          1 MOL1         0.0832
      18    C7      18.450476   19.813378   23.341054 C.3        1 MOL1        -0.1685
      19    H12     18.220978   20.381504   24.252853 H          1 MOL1         0.0832
      20    H13     17.480534   19.556853   22.893753 H          1 MOL1         0.0832
      21    O1      21.233603   21.874564   21.744443 O.3        1 MOL1        -0.5509
      22    H14     20.718351   22.690725   21.913484 H          1 MOL1         0.3779
@<TRIPOS>BOND
    1     1     2    1
    2     1     3    1
    3     1     4    1
    4     4     5    1
    5     4     6    1
    6     4     7    1
    7     7     8    1
    8     7     9    1
    9     7    10    1
   10    10    11    1
   11    10    12    1
   12    10    13    1
   13    13    14    1
   14    13    15    1
   15    15    16    1
   16    15    17    1
   17     1    18    1
   18    15    18    1
   19    18    19    1
   20    18    20    1
   21    13    21    1
   22    21    22    1
@<TRIPOS>SUBSTRUCTURE
       1 MOL1            1 RESIDUE      1      MOL     
@<SCITEGIC>MOL_PROPERTY
VConf Rank
SciTegic.value.IntegerValue
337

@<SCITEGIC>MOL_PROPERTY
Conf_Id
SciTegic.value.IntegerValue
141

@<SCITEGIC>MOL_PROPERTY
Delta U+W
SciTegic.value.DoubleValue
0.000

@<SCITEGIC>MOL_PROPERTY
U+W
SciTegic.value.DoubleValue
6.423

@<SCITEGIC>MOL_PROPERTY
Grad RMS
SciTegic.value.DoubleValue
0.000000

@<SCITEGIC>MOL_PROPERTY
U
SciTegic.value.DoubleValue
8.781

@<SCITEGIC>MOL_PROPERTY
W
SciTegic.value.DoubleValue
-2.358

@<SCITEGIC>MOL_PROPERTY
W(PB)
SciTegic.value.DoubleValue
-4.373

@<SCITEGIC>MOL_PROPERTY
W(SA)
SciTegic.value.DoubleValue
2.015

@<SCITEGIC>MOL_PROPERTY
Valence
SciTegic.value.DoubleValue
13.328

@<SCITEGIC>MOL_PROPERTY
Coulomb
SciTegic.value.DoubleValue
-8.387

@<SCITEGIC>MOL_PROPERTY
VdW
SciTegic.value.DoubleValue
3.840

@<SCITEGIC>MOL_PROPERTY
VdW6
SciTegic.value.DoubleValue
-9.744

@<SCITEGIC>MOL_PROPERTY
VdW12
SciTegic.value.DoubleValue
13.584

@<SCITEGIC>MOL_PROPERTY
Bond
SciTegic.value.DoubleValue
0.436

@<SCITEGIC>MOL_PROPERTY
Angle
SciTegic.value.DoubleValue
3.478

@<SCITEGIC>MOL_PROPERTY
Pdih
SciTegic.value.DoubleValue
9.415

@<SCITEGIC>MOL_PROPERTY
Idih
SciTegic.value.DoubleValue
0.000

@<SCITEGIC>MOL_PROPERTY
Tether
SciTegic.value.DoubleValue
0.000

@<TRIPOS>MOLECULE
guest-5_confgen4.mol2 : confsearch ligand conformer 338
          22          22           1
SMALL
USER_CHARGES
 
@<TRIPOS>ATOM
       1    C1      19.919866   18.444234   21.357046 C.3        1 MOL1        -0.1685
       2    H1      20.866962   18.022156   21.719632 H          1 MOL1         0.0832
       3    H2      19.610825   17.814644   20.511461 H          1 MOL1         0.0832
       4    C2      20.123545   19.882252   20.822001 C.3        1 MOL1        -0.1685
       5    H3      20.721843   19.831833   19.902028 H          1 MOL1         0.0832
       6    H4      19.152555   20.300796   20.523874 H          1 MOL1         0.0832
       7    C3      20.822004   20.856323   21.798562 C.3        1 MOL1        -0.1685
       8    H5      20.845365   21.850668   21.332129 H          1 MOL1         0.0832
       9    H6      21.872284   20.558601   21.921982 H          1 MOL1         0.0832
      10    C4      20.153837   20.978709   23.189877 C.3        1 MOL1        -0.1761
      11    H7      20.591979   21.850730   23.692963 H          1 MOL1         0.0832
      12    H8      19.081918   21.191919   23.087277 H          1 MOL1         0.0832
      13    C5      20.375133   19.728085   24.069988 C.3        1 MOL1         0.1218
      14    H9      21.359726   19.304595   23.824885 H          1 MOL1         0.0789
      15    C6      19.312312   18.620234   23.890062 C.3        1 MOL1        -0.1761
      16    H10     19.731270   17.690294   24.295691 H          1 MOL1         0.0832
      17    H11     18.437047   18.851974   24.511607 H          1 MOL1         0.0832
      18    C7      18.823144   18.356221   22.444013 C.3        1 MOL1        -0.1685
      19    H12     18.372355   17.354815   22.415722 H          1 MOL1         0.0832
      20    H13     18.009212   19.051951   22.198691 H          1 MOL1         0.0832
      21    O1      20.373142   20.123026   25.436456 O.3        1 MOL1        -0.5509
      22    H14     21.102733   20.768449   25.544822 H          1 MOL1         0.3779
@<TRIPOS>BOND
    1     1     2    1
    2     1     3    1
    3     1     4    1
    4     4     5    1
    5     4     6    1
    6     4     7    1
    7     7     8    1
    8     7     9    1
    9     7    10    1
   10    10    11    1
   11    10    12    1
   12    10    13    1
   13    13    14    1
   14    13    15    1
   15    15    16    1
   16    15    17    1
   17     1    18    1
   18    15    18    1
   19    18    19    1
   20    18    20    1
   21    13    21    1
   22    21    22    1
@<TRIPOS>SUBSTRUCTURE
       1 MOL1            1 RESIDUE      1      MOL     
@<SCITEGIC>MOL_PROPERTY
VConf Rank
SciTegic.value.IntegerValue
338

@<SCITEGIC>MOL_PROPERTY
Conf_Id
SciTegic.value.IntegerValue
144

@<SCITEGIC>MOL_PROPERTY
Delta U+W
SciTegic.value.DoubleValue
-3.291

@<SCITEGIC>MOL_PROPERTY
U+W
SciTegic.value.DoubleValue
3.132

@<SCITEGIC>MOL_PROPERTY
Grad RMS
SciTegic.value.DoubleValue
0.000000

@<SCITEGIC>MOL_PROPERTY
U
SciTegic.value.DoubleValue
5.411

@<SCITEGIC>MOL_PROPERTY
W
SciTegic.value.DoubleValue
-2.279

@<SCITEGIC>MOL_PROPERTY
W(PB)
SciTegic.value.DoubleValue
-4.300

@<SCITEGIC>MOL_PROPERTY
W(SA)
SciTegic.value.DoubleValue
2.021

@<SCITEGIC>MOL_PROPERTY
Valence
SciTegic.value.DoubleValue
11.909

@<SCITEGIC>MOL_PROPERTY
Coulomb
SciTegic.value.DoubleValue
-8.733

@<SCITEGIC>MOL_PROPERTY
VdW
SciTegic.value.DoubleValue
2.236

@<SCITEGIC>MOL_PROPERTY
VdW6
SciTegic.value.DoubleValue
-8.936

@<SCITEGIC>MOL_PROPERTY
VdW12
SciTegic.value.DoubleValue
11.172

@<SCITEGIC>MOL_PROPERTY
Bond
SciTegic.value.DoubleValue
0.223

@<SCITEGIC>MOL_PROPERTY
Angle
SciTegic.value.DoubleValue
2.457

@<SCITEGIC>MOL_PROPERTY
Pdih
SciTegic.value.DoubleValue
9.228

@<SCITEGIC>MOL_PROPERTY
Idih
SciTegic.value.DoubleValue
0.000

@<SCITEGIC>MOL_PROPERTY
Tether
SciTegic.value.DoubleValue
0.000

@<TRIPOS>MOLECULE
guest-5_confgen4.mol2 : confsearch ligand conformer 339
          22          22           1
SMALL
USER_CHARGES
 
@<TRIPOS>ATOM
       1    C1      21.611627   19.686906   22.217189 C.3        1 MOL1        -0.1685
       2    H1      22.560225   19.939296   21.723882 H          1 MOL1         0.0832
       3    H2      21.875040   19.059149   23.079289 H          1 MOL1         0.0832
       4    C2      20.742119   18.900773   21.208216 C.3        1 MOL1        -0.1685
       5    H3      20.227144   19.606240   20.541964 H          1 MOL1         0.0832
       6    H4      21.400366   18.309979   20.556548 H          1 MOL1         0.0832
       7    C3      19.709809   17.937363   21.842328 C.3        1 MOL1        -0.1685
       8    H5      20.207876   16.988402   22.083818 H          1 MOL1         0.0832
       9    H6      18.956532   17.693309   21.080732 H          1 MOL1         0.0832
      10    C4      18.991611   18.443062   23.117711 C.3        1 MOL1        -0.1761
      11    H7      18.086433   17.836490   23.256254 H          1 MOL1         0.0832
      12    H8      19.623256   18.239055   23.991953 H          1 MOL1         0.0832
      13    C5      18.611115   19.940569   23.100684 C.3        1 MOL1         0.1218
      14    H9      18.345866   20.241494   22.077182 H          1 MOL1         0.0789
      15    C6      19.746221   20.846399   23.629818 C.3        1 MOL1        -0.1761
      16    H10     19.334854   21.844717   23.830493 H          1 MOL1         0.0832
      17    H11     20.099589   20.464113   24.596293 H          1 MOL1         0.0832
      18    C7      20.954086   21.010250   22.676963 C.3        1 MOL1        -0.1685
      19    H12     20.646697   21.590216   21.796011 H          1 MOL1         0.0832
      20    H13     21.712797   21.619779   23.186491 H          1 MOL1         0.0832
      21    O1      17.479385   20.123573   23.940868 O.3        1 MOL1        -0.5509
      22    H14     17.753426   19.844493   24.838740 H          1 MOL1         0.3779
@<TRIPOS>BOND
    1     1     2    1
    2     1     3    1
    3     1     4    1
    4     4     5    1
    5     4     6    1
    6     4     7    1
    7     7     8    1
    8     7     9    1
    9     7    10    1
   10    10    11    1
   11    10    12    1
   12    10    13    1
   13    13    14    1
   14    13    15    1
   15    15    16    1
   16    15    17    1
   17     1    18    1
   18    15    18    1
   19    18    19    1
   20    18    20    1
   21    13    21    1
   22    21    22    1
@<TRIPOS>SUBSTRUCTURE
       1 MOL1            1 RESIDUE      1      MOL     
@<SCITEGIC>MOL_PROPERTY
VConf Rank
SciTegic.value.IntegerValue
339

@<SCITEGIC>MOL_PROPERTY
Conf_Id
SciTegic.value.IntegerValue
76

@<SCITEGIC>MOL_PROPERTY
Delta U+W
SciTegic.value.DoubleValue
-3.175

@<SCITEGIC>MOL_PROPERTY
U+W
SciTegic.value.DoubleValue
3.248

@<SCITEGIC>MOL_PROPERTY
Grad RMS
SciTegic.value.DoubleValue
0.000000

@<SCITEGIC>MOL_PROPERTY
U
SciTegic.value.DoubleValue
5.336

@<SCITEGIC>MOL_PROPERTY
W
SciTegic.value.DoubleValue
-2.088

@<SCITEGIC>MOL_PROPERTY
W(PB)
SciTegic.value.DoubleValue
-4.098

@<SCITEGIC>MOL_PROPERTY
W(SA)
SciTegic.value.DoubleValue
2.010

@<SCITEGIC>MOL_PROPERTY
Valence
SciTegic.value.DoubleValue
12.390

@<SCITEGIC>MOL_PROPERTY
Coulomb
SciTegic.value.DoubleValue
-9.270

@<SCITEGIC>MOL_PROPERTY
VdW
SciTegic.value.DoubleValue
2.216

@<SCITEGIC>MOL_PROPERTY
VdW6
SciTegic.value.DoubleValue
-8.967

@<SCITEGIC>MOL_PROPERTY
VdW12
SciTegic.value.DoubleValue
11.183

@<SCITEGIC>MOL_PROPERTY
Bond
SciTegic.value.DoubleValue
0.218

@<SCITEGIC>MOL_PROPERTY
Angle
SciTegic.value.DoubleValue
2.426

@<SCITEGIC>MOL_PROPERTY
Pdih
SciTegic.value.DoubleValue
9.745

@<SCITEGIC>MOL_PROPERTY
Idih
SciTegic.value.DoubleValue
0.000

@<SCITEGIC>MOL_PROPERTY
Tether
SciTegic.value.DoubleValue
0.000

@<TRIPOS>MOLECULE
guest-5_confgen4.mol2 : confsearch ligand conformer 340
          22          22           1
SMALL
USER_CHARGES
 
@<TRIPOS>ATOM
       1    C1      20.442376   19.011494   20.932920 C.3        1 MOL1        -0.1685
       2    H1      20.726274   19.649390   20.084821 H          1 MOL1         0.0832
       3    H2      20.502413   17.979005   20.562545 H          1 MOL1         0.0832
       4    C2      18.973597   19.326196   21.304840 C.3        1 MOL1        -0.1685
       5    H3      18.783950   20.399991   21.172635 H          1 MOL1         0.0832
       6    H4      18.323624   18.821524   20.577086 H          1 MOL1         0.0832
       7    C3      18.554538   18.901615   22.731606 C.3        1 MOL1        -0.1685
       8    H5      19.026819   17.950810   23.014019 H          1 MOL1         0.0832
       9    H6      17.472224   18.714867   22.727787 H          1 MOL1         0.0832
      10    C4      18.840888   19.995468   23.791591 C.3        1 MOL1        -0.1761
      11    H7      18.419624   20.949147   23.448740 H          1 MOL1         0.0832
      12    H8      18.293959   19.744899   24.710012 H          1 MOL1         0.0832
      13    C5      20.324898   20.212652   24.165280 C.3        1 MOL1         0.1218
      14    H9      20.367696   21.126363   24.775523 H          1 MOL1         0.0789
      15    C6      21.283105   20.420496   22.965644 C.3        1 MOL1        -0.1761
      16    H10     20.943518   21.271622   22.361373 H          1 MOL1         0.0832
      17    H11     22.260100   20.715597   23.369606 H          1 MOL1         0.0832
      18    C7      21.487313   19.176661   22.062101 C.3        1 MOL1        -0.1685
      19    H12     22.480167   19.237241   21.596275 H          1 MOL1         0.0832
      20    H13     21.508776   18.265606   22.674441 H          1 MOL1         0.0832
      21    O1      20.772029   19.123200   24.966025 O.3        1 MOL1        -0.5509
      22    H14     21.724332   19.273964   25.135355 H          1 MOL1         0.3779
@<TRIPOS>BOND
    1     1     2    1
    2     1     3    1
    3     1     4    1
    4     4     5    1
    5     4     6    1
    6     4     7    1
    7     7     8    1
    8     7     9    1
    9     7    10    1
   10    10    11    1
   11    10    12    1
   12    10    13    1
   13    13    14    1
   14    13    15    1
   15    15    16    1
   16    15    17    1
   17     1    18    1
   18    15    18    1
   19    18    19    1
   20    18    20    1
   21    13    21    1
   22    21    22    1
@<TRIPOS>SUBSTRUCTURE
       1 MOL1            1 RESIDUE      1      MOL     
@<SCITEGIC>MOL_PROPERTY
VConf Rank
SciTegic.value.IntegerValue
340

@<SCITEGIC>MOL_PROPERTY
Conf_Id
SciTegic.value.IntegerValue
95

@<SCITEGIC>MOL_PROPERTY
Delta U+W
SciTegic.value.DoubleValue
-2.289

@<SCITEGIC>MOL_PROPERTY
U+W
SciTegic.value.DoubleValue
4.134

@<SCITEGIC>MOL_PROPERTY
Grad RMS
SciTegic.value.DoubleValue
0.000000

@<SCITEGIC>MOL_PROPERTY
U
SciTegic.value.DoubleValue
6.373

@<SCITEGIC>MOL_PROPERTY
W
SciTegic.value.DoubleValue
-2.240

@<SCITEGIC>MOL_PROPERTY
W(PB)
SciTegic.value.DoubleValue
-4.254

@<SCITEGIC>MOL_PROPERTY
W(SA)
SciTegic.value.DoubleValue
2.015

@<SCITEGIC>MOL_PROPERTY
Valence
SciTegic.value.DoubleValue
12.093

@<SCITEGIC>MOL_PROPERTY
Coulomb
SciTegic.value.DoubleValue
-8.058

@<SCITEGIC>MOL_PROPERTY
VdW
SciTegic.value.DoubleValue
2.339

@<SCITEGIC>MOL_PROPERTY
VdW6
SciTegic.value.DoubleValue
-9.683

@<SCITEGIC>MOL_PROPERTY
VdW12
SciTegic.value.DoubleValue
12.022

@<SCITEGIC>MOL_PROPERTY
Bond
SciTegic.value.DoubleValue
0.268

@<SCITEGIC>MOL_PROPERTY
Angle
SciTegic.value.DoubleValue
3.005

@<SCITEGIC>MOL_PROPERTY
Pdih
SciTegic.value.DoubleValue
8.820

@<SCITEGIC>MOL_PROPERTY
Idih
SciTegic.value.DoubleValue
0.000

@<SCITEGIC>MOL_PROPERTY
Tether
SciTegic.value.DoubleValue
0.000

@<TRIPOS>MOLECULE
guest-5_confgen4.mol2 : confsearch ligand conformer 341
          22          22           1
SMALL
USER_CHARGES
 
@<TRIPOS>ATOM
       1    C1      19.705901   21.319103   23.531935 C.3        1 MOL1        -0.1685
       2    H1      20.153445   22.292087   23.287477 H          1 MOL1         0.0832
       3    H2      18.981448   21.517369   24.333588 H          1 MOL1         0.0832
       4    C2      20.821119   20.397719   24.081178 C.3        1 MOL1        -0.1685
       5    H3      21.759267   20.600347   23.547044 H          1 MOL1         0.0832
       6    H4      21.011252   20.680607   25.125507 H          1 MOL1         0.0832
       7    C3      20.510213   18.884092   24.019639 C.3        1 MOL1        -0.1685
       8    H5      19.450896   18.691090   24.237396 H          1 MOL1         0.0832
       9    H6      21.080681   18.386917   24.815761 H          1 MOL1         0.0832
      10    C4      20.924679   18.243337   22.670951 C.3        1 MOL1        -0.1761
      11    H7      21.960248   18.526512   22.442250 H          1 MOL1         0.0832
      12    H8      20.941160   17.152340   22.791098 H          1 MOL1         0.0832
      13    C5      20.037687   18.585758   21.452046 C.3        1 MOL1         0.1218
      14    H9      20.559573   18.204617   20.562402 H          1 MOL1         0.0789
      15    C6      19.792034   20.097969   21.221380 C.3        1 MOL1        -0.1761
      16    H10     20.750674   20.620421   21.109395 H          1 MOL1         0.0832
      17    H11     19.280507   20.199728   20.255557 H          1 MOL1         0.0832
      18    C7      18.926203   20.797768   22.301222 C.3        1 MOL1        -0.1685
      19    H12     18.411597   21.652080   21.841278 H          1 MOL1         0.0832
      20    H13     18.126580   20.122677   22.633601 H          1 MOL1         0.0832
      21    O1      18.794556   17.899640   21.565005 O.3        1 MOL1        -0.5509
      22    H14     19.006617   16.957639   21.725783 H          1 MOL1         0.3779
@<TRIPOS>BOND
    1     1     2    1
    2     1     3    1
    3     1     4    1
    4     4     5    1
    5     4     6    1
    6     4     7    1
    7     7     8    1
    8     7     9    1
    9     7    10    1
   10    10    11    1
   11    10    12    1
   12    10    13    1
   13    13    14    1
   14    13    15    1
   15    15    16    1
   16    15    17    1
   17     1    18    1
   18    15    18    1
   19    18    19    1
   20    18    20    1
   21    13    21    1
   22    21    22    1
@<TRIPOS>SUBSTRUCTURE
       1 MOL1            1 RESIDUE      1      MOL     
@<SCITEGIC>MOL_PROPERTY
VConf Rank
SciTegic.value.IntegerValue
341

@<SCITEGIC>MOL_PROPERTY
Conf_Id
SciTegic.value.IntegerValue
41

@<SCITEGIC>MOL_PROPERTY
Delta U+W
SciTegic.value.DoubleValue
-2.114

@<SCITEGIC>MOL_PROPERTY
U+W
SciTegic.value.DoubleValue
4.310

@<SCITEGIC>MOL_PROPERTY
Grad RMS
SciTegic.value.DoubleValue
0.000000

@<SCITEGIC>MOL_PROPERTY
U
SciTegic.value.DoubleValue
6.598

@<SCITEGIC>MOL_PROPERTY
W
SciTegic.value.DoubleValue
-2.289

@<SCITEGIC>MOL_PROPERTY
W(PB)
SciTegic.value.DoubleValue
-4.294

@<SCITEGIC>MOL_PROPERTY
W(SA)
SciTegic.value.DoubleValue
2.005

@<SCITEGIC>MOL_PROPERTY
Valence
SciTegic.value.DoubleValue
12.082

@<SCITEGIC>MOL_PROPERTY
Coulomb
SciTegic.value.DoubleValue
-7.801

@<SCITEGIC>MOL_PROPERTY
VdW
SciTegic.value.DoubleValue
2.317

@<SCITEGIC>MOL_PROPERTY
VdW6
SciTegic.value.DoubleValue
-9.658

@<SCITEGIC>MOL_PROPERTY
VdW12
SciTegic.value.DoubleValue
11.975

@<SCITEGIC>MOL_PROPERTY
Bond
SciTegic.value.DoubleValue
0.267

@<SCITEGIC>MOL_PROPERTY
Angle
SciTegic.value.DoubleValue
3.051

@<SCITEGIC>MOL_PROPERTY
Pdih
SciTegic.value.DoubleValue
8.764

@<SCITEGIC>MOL_PROPERTY
Idih
SciTegic.value.DoubleValue
0.000

@<SCITEGIC>MOL_PROPERTY
Tether
SciTegic.value.DoubleValue
0.000

@<TRIPOS>MOLECULE
guest-5_confgen4.mol2 : confsearch ligand conformer 342
          22          22           1
SMALL
USER_CHARGES
 
@<TRIPOS>ATOM
       1    C1      19.518160   20.731230   23.730329 C.3        1 MOL1        -0.1685
       2    H1      19.023391   21.317397   24.516562 H          1 MOL1         0.0832
       3    H2      20.341401   21.353909   23.353870 H          1 MOL1         0.0832
       4    C2      18.481916   20.463294   22.615971 C.3        1 MOL1        -0.1685
       5    H3      17.701293   19.789443   22.994304 H          1 MOL1         0.0832
       6    H4      17.974133   21.407007   22.374885 H          1 MOL1         0.0832
       7    C3      19.073464   19.885585   21.311538 C.3        1 MOL1        -0.1685
       8    H5      19.693748   20.648378   20.822371 H          1 MOL1         0.0832
       9    H6      18.242789   19.693921   20.619173 H          1 MOL1         0.0832
      10    C4      19.882478   18.570863   21.479433 C.3        1 MOL1        -0.1761
      11    H7      19.291231   17.833312   22.036840 H          1 MOL1         0.0832
      12    H8      20.027488   18.140343   20.480329 H          1 MOL1         0.0832
      13    C5      21.285916   18.714771   22.122614 C.3        1 MOL1         0.1218
      14    H9      21.838707   17.795023   21.882271 H          1 MOL1         0.0789
      15    C6      21.312326   18.842146   23.668000 C.3        1 MOL1        -0.1761
      16    H10     21.483329   17.842171   24.087369 H          1 MOL1         0.0832
      17    H11     22.189834   19.432236   23.963372 H          1 MOL1         0.0832
      18    C7      20.061332   19.431996   24.365130 C.3        1 MOL1        -0.1685
      19    H12     19.265153   18.676375   24.404498 H          1 MOL1         0.0832
      20    H13     20.325253   19.636173   25.411713 H          1 MOL1         0.0832
      21    O1      21.991864   19.806666   21.539243 O.3        1 MOL1        -0.5509
      22    H14     22.878680   19.823392   21.952992 H          1 MOL1         0.3779
@<TRIPOS>BOND
    1     1     2    1
    2     1     3    1
    3     1     4    1
    4     4     5    1
    5     4     6    1
    6     4     7    1
    7     7     8    1
    8     7     9    1
    9     7    10    1
   10    10    11    1
   11    10    12    1
   12    10    13    1
   13    13    14    1
   14    13    15    1
   15    15    16    1
   16    15    17    1
   17     1    18    1
   18    15    18    1
   19    18    19    1
   20    18    20    1
   21    13    21    1
   22    21    22    1
@<TRIPOS>SUBSTRUCTURE
       1 MOL1            1 RESIDUE      1      MOL     
@<SCITEGIC>MOL_PROPERTY
VConf Rank
SciTegic.value.IntegerValue
342

@<SCITEGIC>MOL_PROPERTY
Conf_Id
SciTegic.value.IntegerValue
104

@<SCITEGIC>MOL_PROPERTY
Delta U+W
SciTegic.value.DoubleValue
-1.172

@<SCITEGIC>MOL_PROPERTY
U+W
SciTegic.value.DoubleValue
5.252

@<SCITEGIC>MOL_PROPERTY
Grad RMS
SciTegic.value.DoubleValue
0.000000

@<SCITEGIC>MOL_PROPERTY
U
SciTegic.value.DoubleValue
7.482

@<SCITEGIC>MOL_PROPERTY
W
SciTegic.value.DoubleValue
-2.230

@<SCITEGIC>MOL_PROPERTY
W(PB)
SciTegic.value.DoubleValue
-4.220

@<SCITEGIC>MOL_PROPERTY
W(SA)
SciTegic.value.DoubleValue
1.990

@<SCITEGIC>MOL_PROPERTY
Valence
SciTegic.value.DoubleValue
12.309

@<SCITEGIC>MOL_PROPERTY
Coulomb
SciTegic.value.DoubleValue
-7.084

@<SCITEGIC>MOL_PROPERTY
VdW
SciTegic.value.DoubleValue
2.258

@<SCITEGIC>MOL_PROPERTY
VdW6
SciTegic.value.DoubleValue
-9.770

@<SCITEGIC>MOL_PROPERTY
VdW12
SciTegic.value.DoubleValue
12.028

@<SCITEGIC>MOL_PROPERTY
Bond
SciTegic.value.DoubleValue
0.284

@<SCITEGIC>MOL_PROPERTY
Angle
SciTegic.value.DoubleValue
3.491

@<SCITEGIC>MOL_PROPERTY
Pdih
SciTegic.value.DoubleValue
8.535

@<SCITEGIC>MOL_PROPERTY
Idih
SciTegic.value.DoubleValue
0.000

@<SCITEGIC>MOL_PROPERTY
Tether
SciTegic.value.DoubleValue
0.000

@<TRIPOS>MOLECULE
guest-5_confgen4.mol2 : confsearch ligand conformer 343
          22          22           1
SMALL
USER_CHARGES
 
@<TRIPOS>ATOM
       1    C1      19.799083   17.969216   22.540057 C.3        1 MOL1        -0.1685
       2    H1      18.753389   18.100485   22.230579 H          1 MOL1         0.0832
       3    H2      19.967164   16.884447   22.584374 H          1 MOL1         0.0832
       4    C2      20.031659   18.541905   23.956892 C.3        1 MOL1        -0.1685
       5    H3      19.665196   17.813733   24.693587 H          1 MOL1         0.0832
       6    H4      21.110486   18.618267   24.145672 H          1 MOL1         0.0832
       7    C3      19.345313   19.899339   24.253501 C.3        1 MOL1        -0.1685
       8    H5      19.909218   20.407992   25.047603 H          1 MOL1         0.0832
       9    H6      18.353521   19.700775   24.682278 H          1 MOL1         0.0832
      10    C4      19.152385   20.874768   23.060807 C.3        1 MOL1        -0.1761
      11    H7      18.285798   20.551650   22.469556 H          1 MOL1         0.0832
      12    H8      18.873758   21.855749   23.467064 H          1 MOL1         0.0832
      13    C5      20.355766   21.072442   22.110659 C.3        1 MOL1         0.1218
      14    H9      20.213083   22.034639   21.598117 H          1 MOL1         0.0789
      15    C6      20.437295   19.988781   21.011887 C.3        1 MOL1        -0.1761
      16    H10     19.487542   19.973915   20.461605 H          1 MOL1         0.0832
      17    H11     21.196808   20.298076   20.282010 H          1 MOL1         0.0832
      18    C7      20.767247   18.550519   21.482340 C.3        1 MOL1        -0.1685
      19    H12     20.748217   17.895637   20.600592 H          1 MOL1         0.0832
      20    H13     21.798460   18.509009   21.858310 H          1 MOL1         0.0832
      21    O1      21.569195   21.116571   22.845377 O.3        1 MOL1        -0.5509
      22    H14     21.583126   20.269607   23.333992 H          1 MOL1         0.3779
@<TRIPOS>BOND
    1     1     2    1
    2     1     3    1
    3     1     4    1
    4     4     5    1
    5     4     6    1
    6     4     7    1
    7     7     8    1
    8     7     9    1
    9     7    10    1
   10    10    11    1
   11    10    12    1
   12    10    13    1
   13    13    14    1
   14    13    15    1
   15    15    16    1
   16    15    17    1
   17     1    18    1
   18    15    18    1
   19    18    19    1
   20    18    20    1
   21    13    21    1
   22    21    22    1
@<TRIPOS>SUBSTRUCTURE
       1 MOL1            1 RESIDUE      1      MOL     
@<SCITEGIC>MOL_PROPERTY
VConf Rank
SciTegic.value.IntegerValue
343

@<SCITEGIC>MOL_PROPERTY
Conf_Id
SciTegic.value.IntegerValue
99

@<SCITEGIC>MOL_PROPERTY
Delta U+W
SciTegic.value.DoubleValue
-3.852

@<SCITEGIC>MOL_PROPERTY
U+W
SciTegic.value.DoubleValue
2.572

@<SCITEGIC>MOL_PROPERTY
Grad RMS
SciTegic.value.DoubleValue
0.000000

@<SCITEGIC>MOL_PROPERTY
U
SciTegic.value.DoubleValue
3.922

@<SCITEGIC>MOL_PROPERTY
W
SciTegic.value.DoubleValue
-1.350

@<SCITEGIC>MOL_PROPERTY
W(PB)
SciTegic.value.DoubleValue
-3.345

@<SCITEGIC>MOL_PROPERTY
W(SA)
SciTegic.value.DoubleValue
1.995

@<SCITEGIC>MOL_PROPERTY
Valence
SciTegic.value.DoubleValue
12.571

@<SCITEGIC>MOL_PROPERTY
Coulomb
SciTegic.value.DoubleValue
-10.581

@<SCITEGIC>MOL_PROPERTY
VdW
SciTegic.value.DoubleValue
1.932

@<SCITEGIC>MOL_PROPERTY
VdW6
SciTegic.value.DoubleValue
-10.483

@<SCITEGIC>MOL_PROPERTY
VdW12
SciTegic.value.DoubleValue
12.415

@<SCITEGIC>MOL_PROPERTY
Bond
SciTegic.value.DoubleValue
0.268

@<SCITEGIC>MOL_PROPERTY
Angle
SciTegic.value.DoubleValue
3.728

@<SCITEGIC>MOL_PROPERTY
Pdih
SciTegic.value.DoubleValue
8.575

@<SCITEGIC>MOL_PROPERTY
Idih
SciTegic.value.DoubleValue
0.000

@<SCITEGIC>MOL_PROPERTY
Tether
SciTegic.value.DoubleValue
0.000

@<TRIPOS>MOLECULE
guest-5_confgen4.mol2 : confsearch ligand conformer 344
          22          22           1
SMALL
USER_CHARGES
 
@<TRIPOS>ATOM
       1    C1      19.818768   19.482067   24.320759 C.3        1 MOL1        -0.1685
       2    H1      20.023679   19.039469   25.305345 H          1 MOL1         0.0832
       3    H2      19.071301   20.263643   24.511772 H          1 MOL1         0.0832
       4    C2      19.213064   18.370549   23.414392 C.3        1 MOL1        -0.1685
       5    H3      19.155656   17.446895   24.006725 H          1 MOL1         0.0832
       6    H4      18.171209   18.611877   23.164688 H          1 MOL1         0.0832
       7    C3      19.997218   18.050895   22.116056 C.3        1 MOL1        -0.1685
       8    H5      19.581048   17.134039   21.676848 H          1 MOL1         0.0832
       9    H6      21.034019   17.791735   22.363944 H          1 MOL1         0.0832
      10    C4      19.979556   19.153021   21.020686 C.3        1 MOL1        -0.1761
      11    H7      20.845812   18.998391   20.364614 H          1 MOL1         0.0832
      12    H8      19.100221   18.993550   20.382457 H          1 MOL1         0.0832
      13    C5      19.965343   20.634121   21.472680 C.3        1 MOL1         0.1218
      14    H9      20.182230   21.241798   20.582476 H          1 MOL1         0.0789
      15    C6      21.002522   21.031098   22.551945 C.3        1 MOL1        -0.1761
      16    H10     21.989654   21.098677   22.076819 H          1 MOL1         0.0832
      17    H11     20.766647   22.053112   22.877287 H          1 MOL1         0.0832
      18    C7      21.131139   20.132094   23.812916 C.3        1 MOL1        -0.1685
      19    H12     21.885826   19.355198   23.638418 H          1 MOL1         0.0832
      20    H13     21.549257   20.746204   24.622095 H          1 MOL1         0.0832
      21    O1      18.662752   20.985292   21.912202 O.3        1 MOL1        -0.5509
      22    H14     18.518950   20.422174   22.699064 H          1 MOL1         0.3779
@<TRIPOS>BOND
    1     1     2    1
    2     1     3    1
    3     1     4    1
    4     4     5    1
    5     4     6    1
    6     4     7    1
    7     7     8    1
    8     7     9    1
    9     7    10    1
   10    10    11    1
   11    10    12    1
   12    10    13    1
   13    13    14    1
   14    13    15    1
   15    15    16    1
   16    15    17    1
   17     1    18    1
   18    15    18    1
   19    18    19    1
   20    18    20    1
   21    13    21    1
   22    21    22    1
@<TRIPOS>SUBSTRUCTURE
       1 MOL1            1 RESIDUE      1      MOL     
@<SCITEGIC>MOL_PROPERTY
VConf Rank
SciTegic.value.IntegerValue
344

@<SCITEGIC>MOL_PROPERTY
Conf_Id
SciTegic.value.IntegerValue
98

@<SCITEGIC>MOL_PROPERTY
Delta U+W
SciTegic.value.DoubleValue
0.930

@<SCITEGIC>MOL_PROPERTY
U+W
SciTegic.value.DoubleValue
7.353

@<SCITEGIC>MOL_PROPERTY
Grad RMS
SciTegic.value.DoubleValue
0.000000

@<SCITEGIC>MOL_PROPERTY
U
SciTegic.value.DoubleValue
8.455

@<SCITEGIC>MOL_PROPERTY
W
SciTegic.value.DoubleValue
-1.102

@<SCITEGIC>MOL_PROPERTY
W(PB)
SciTegic.value.DoubleValue
-3.101

@<SCITEGIC>MOL_PROPERTY
W(SA)
SciTegic.value.DoubleValue
2.000

@<SCITEGIC>MOL_PROPERTY
Valence
SciTegic.value.DoubleValue
15.601

@<SCITEGIC>MOL_PROPERTY
Coulomb
SciTegic.value.DoubleValue
-10.573

@<SCITEGIC>MOL_PROPERTY
VdW
SciTegic.value.DoubleValue
3.427

@<SCITEGIC>MOL_PROPERTY
VdW6
SciTegic.value.DoubleValue
-11.360

@<SCITEGIC>MOL_PROPERTY
VdW12
SciTegic.value.DoubleValue
14.787

@<SCITEGIC>MOL_PROPERTY
Bond
SciTegic.value.DoubleValue
0.471

@<SCITEGIC>MOL_PROPERTY
Angle
SciTegic.value.DoubleValue
5.445

@<SCITEGIC>MOL_PROPERTY
Pdih
SciTegic.value.DoubleValue
9.685

@<SCITEGIC>MOL_PROPERTY
Idih
SciTegic.value.DoubleValue
0.000

@<SCITEGIC>MOL_PROPERTY
Tether
SciTegic.value.DoubleValue
0.000

@<TRIPOS>MOLECULE
guest-5_confgen4.mol2 : confsearch ligand conformer 345
          22          22           1
SMALL
USER_CHARGES
 
@<TRIPOS>ATOM
       1    C1      20.735614   18.236643   21.787250 C.3        1 MOL1        -0.1685
       2    H1      20.304233   17.563057   22.538897 H          1 MOL1         0.0832
       3    H2      21.226656   17.575532   21.060255 H          1 MOL1         0.0832
       4    C2      21.814488   19.133869   22.445411 C.3        1 MOL1        -0.1685
       5    H3      22.581452   18.471552   22.869651 H          1 MOL1         0.0832
       6    H4      22.325147   19.722757   21.671421 H          1 MOL1         0.0832
       7    C3      21.322480   20.086456   23.570200 C.3        1 MOL1        -0.1685
       8    H5      21.247892   21.112883   23.188234 H          1 MOL1         0.0832
       9    H6      22.098544   20.129415   24.346418 H          1 MOL1         0.0832
      10    C4      19.978795   19.682179   24.232605 C.3        1 MOL1        -0.1761
      11    H7      20.037266   18.635246   24.555308 H          1 MOL1         0.0832
      12    H8      19.865397   20.257262   25.161480 H          1 MOL1         0.0832
      13    C5      18.704378   19.877793   23.359983 C.3        1 MOL1         0.1218
      14    H9      18.093081   18.967694   23.444266 H          1 MOL1         0.0789
      15    C6      18.949983   20.157211   21.856034 C.3        1 MOL1        -0.1761
      16    H10     17.991284   20.396286   21.377706 H          1 MOL1         0.0832
      17    H11     19.558425   21.062582   21.743388 H          1 MOL1         0.0832
      18    C7      19.599875   18.996399   21.062331 C.3        1 MOL1        -0.1685
      19    H12     18.820879   18.270210   20.792836 H          1 MOL1         0.0832
      20    H13     19.981836   19.394900   20.112608 H          1 MOL1         0.0832
      21    O1      17.964727   20.975631   23.882327 O.3        1 MOL1        -0.5509
      22    H14     17.142822   21.040245   23.352728 H          1 MOL1         0.3779
@<TRIPOS>BOND
    1     1     2    1
    2     1     3    1
    3     1     4    1
    4     4     5    1
    5     4     6    1
    6     4     7    1
    7     7     8    1
    8     7     9    1
    9     7    10    1
   10    10    11    1
   11    10    12    1
   12    10    13    1
   13    13    14    1
   14    13    15    1
   15    15    16    1
   16    15    17    1
   17     1    18    1
   18    15    18    1
   19    18    19    1
   20    18    20    1
   21    13    21    1
   22    21    22    1
@<TRIPOS>SUBSTRUCTURE
       1 MOL1            1 RESIDUE      1      MOL     
@<SCITEGIC>MOL_PROPERTY
VConf Rank
SciTegic.value.IntegerValue
345

@<SCITEGIC>MOL_PROPERTY
Conf_Id
SciTegic.value.IntegerValue
141

@<SCITEGIC>MOL_PROPERTY
Delta U+W
SciTegic.value.DoubleValue
0.000

@<SCITEGIC>MOL_PROPERTY
U+W
SciTegic.value.DoubleValue
6.423

@<SCITEGIC>MOL_PROPERTY
Grad RMS
SciTegic.value.DoubleValue
0.000000

@<SCITEGIC>MOL_PROPERTY
U
SciTegic.value.DoubleValue
8.781

@<SCITEGIC>MOL_PROPERTY
W
SciTegic.value.DoubleValue
-2.358

@<SCITEGIC>MOL_PROPERTY
W(PB)
SciTegic.value.DoubleValue
-4.373

@<SCITEGIC>MOL_PROPERTY
W(SA)
SciTegic.value.DoubleValue
2.015

@<SCITEGIC>MOL_PROPERTY
Valence
SciTegic.value.DoubleValue
13.328

@<SCITEGIC>MOL_PROPERTY
Coulomb
SciTegic.value.DoubleValue
-8.387

@<SCITEGIC>MOL_PROPERTY
VdW
SciTegic.value.DoubleValue
3.840

@<SCITEGIC>MOL_PROPERTY
VdW6
SciTegic.value.DoubleValue
-9.744

@<SCITEGIC>MOL_PROPERTY
VdW12
SciTegic.value.DoubleValue
13.584

@<SCITEGIC>MOL_PROPERTY
Bond
SciTegic.value.DoubleValue
0.436

@<SCITEGIC>MOL_PROPERTY
Angle
SciTegic.value.DoubleValue
3.478

@<SCITEGIC>MOL_PROPERTY
Pdih
SciTegic.value.DoubleValue
9.415

@<SCITEGIC>MOL_PROPERTY
Idih
SciTegic.value.DoubleValue
0.000

@<SCITEGIC>MOL_PROPERTY
Tether
SciTegic.value.DoubleValue
0.000

@<TRIPOS>MOLECULE
guest-5_confgen4.mol2 : confsearch ligand conformer 346
          22          22           1
SMALL
USER_CHARGES
 
@<TRIPOS>ATOM
       1    C1      21.450679   19.061360   21.879288 C.3        1 MOL1        -0.1685
       2    H1      21.831197   20.090914   21.922079 H          1 MOL1         0.0832
       3    H2      22.259497   18.456407   21.447142 H          1 MOL1         0.0832
       4    C2      20.231235   18.960860   20.931389 C.3        1 MOL1        -0.1685
       5    H3      20.574838   19.123758   19.900731 H          1 MOL1         0.0832
       6    H4      19.834823   17.936574   20.955367 H          1 MOL1         0.0832
       7    C3      19.086668   19.958941   21.221441 C.3        1 MOL1        -0.1685
       8    H5      18.260425   19.742612   20.530535 H          1 MOL1         0.0832
       9    H6      19.420537   20.977277   20.979610 H          1 MOL1         0.0832
      10    C4      18.541127   19.925527   22.670044 C.3        1 MOL1        -0.1761
      11    H7      17.602307   20.494645   22.684385 H          1 MOL1         0.0832
      12    H8      18.281046   18.899894   22.962334 H          1 MOL1         0.0832
      13    C5      19.520432   20.547391   23.690766 C.3        1 MOL1         0.1218
      14    H9      20.069541   21.358248   23.190931 H          1 MOL1         0.0789
      15    C6      20.549672   19.555640   24.279317 C.3        1 MOL1        -0.1761
      16    H10     21.364896   20.145612   24.717715 H          1 MOL1         0.0832
      17    H11     20.091265   19.009086   25.114334 H          1 MOL1         0.0832
      18    C7      21.156063   18.521275   23.298285 C.3        1 MOL1        -0.1685
      19    H12     22.089672   18.143860   23.737325 H          1 MOL1         0.0832
      20    H13     20.491575   17.649487   23.226515 H          1 MOL1         0.0832
      21    O1      18.771786   21.096802   24.768214 O.3        1 MOL1        -0.5509
      22    H14     18.179775   21.776339   24.383023 H          1 MOL1         0.3779
@<TRIPOS>BOND
    1     1     2    1
    2     1     3    1
    3     1     4    1
    4     4     5    1
    5     4     6    1
    6     4     7    1
    7     7     8    1
    8     7     9    1
    9     7    10    1
   10    10    11    1
   11    10    12    1
   12    10    13    1
   13    13    14    1
   14    13    15    1
   15    15    16    1
   16    15    17    1
   17     1    18    1
   18    15    18    1
   19    18    19    1
   20    18    20    1
   21    13    21    1
   22    21    22    1
@<TRIPOS>SUBSTRUCTURE
       1 MOL1            1 RESIDUE      1      MOL     
@<SCITEGIC>MOL_PROPERTY
VConf Rank
SciTegic.value.IntegerValue
346

@<SCITEGIC>MOL_PROPERTY
Conf_Id
SciTegic.value.IntegerValue
144

@<SCITEGIC>MOL_PROPERTY
Delta U+W
SciTegic.value.DoubleValue
-3.291

@<SCITEGIC>MOL_PROPERTY
U+W
SciTegic.value.DoubleValue
3.132

@<SCITEGIC>MOL_PROPERTY
Grad RMS
SciTegic.value.DoubleValue
0.000000

@<SCITEGIC>MOL_PROPERTY
U
SciTegic.value.DoubleValue
5.411

@<SCITEGIC>MOL_PROPERTY
W
SciTegic.value.DoubleValue
-2.279

@<SCITEGIC>MOL_PROPERTY
W(PB)
SciTegic.value.DoubleValue
-4.300

@<SCITEGIC>MOL_PROPERTY
W(SA)
SciTegic.value.DoubleValue
2.021

@<SCITEGIC>MOL_PROPERTY
Valence
SciTegic.value.DoubleValue
11.909

@<SCITEGIC>MOL_PROPERTY
Coulomb
SciTegic.value.DoubleValue
-8.733

@<SCITEGIC>MOL_PROPERTY
VdW
SciTegic.value.DoubleValue
2.236

@<SCITEGIC>MOL_PROPERTY
VdW6
SciTegic.value.DoubleValue
-8.936

@<SCITEGIC>MOL_PROPERTY
VdW12
SciTegic.value.DoubleValue
11.172

@<SCITEGIC>MOL_PROPERTY
Bond
SciTegic.value.DoubleValue
0.223

@<SCITEGIC>MOL_PROPERTY
Angle
SciTegic.value.DoubleValue
2.457

@<SCITEGIC>MOL_PROPERTY
Pdih
SciTegic.value.DoubleValue
9.228

@<SCITEGIC>MOL_PROPERTY
Idih
SciTegic.value.DoubleValue
0.000

@<SCITEGIC>MOL_PROPERTY
Tether
SciTegic.value.DoubleValue
0.000

@<TRIPOS>MOLECULE
guest-5_confgen4.mol2 : confsearch ligand conformer 347
          22          22           1
SMALL
USER_CHARGES
 
@<TRIPOS>ATOM
       1    C1      20.710772   18.534186   21.482533 C.3        1 MOL1        -0.1685
       2    H1      20.999323   17.693381   20.837030 H          1 MOL1         0.0832
       3    H2      21.379823   19.364188   21.217674 H          1 MOL1         0.0832
       4    C2      20.922629   18.103191   22.952715 C.3        1 MOL1        -0.1685
       5    H3      20.054006   17.522719   23.292305 H          1 MOL1         0.0832
       6    H4      21.774329   17.410885   23.000864 H          1 MOL1         0.0832
       7    C3      21.193075   19.261093   23.943696 C.3        1 MOL1        -0.1685
       8    H5      22.261053   19.516678   23.911847 H          1 MOL1         0.0832
       9    H6      21.005156   18.891731   24.961181 H          1 MOL1         0.0832
      10    C4      20.379707   20.559884   23.720728 C.3        1 MOL1        -0.1761
      11    H7      20.416108   21.142790   24.650978 H          1 MOL1         0.0832
      12    H8      20.883417   21.175202   22.964056 H          1 MOL1         0.0832
      13    C5      18.907252   20.343208   23.305371 C.3        1 MOL1         0.1218
      14    H9      18.515327   19.440724   23.795664 H          1 MOL1         0.0789
      15    C6      18.735789   20.217614   21.774422 C.3        1 MOL1        -0.1761
      16    H10     17.670101   20.321542   21.530212 H          1 MOL1         0.0832
      17    H11     19.243550   21.055351   21.278982 H          1 MOL1         0.0832
      18    C7      19.238132   18.887627   21.164093 C.3        1 MOL1        -0.1685
      19    H12     18.586500   18.066837   21.493644 H          1 MOL1         0.0832
      20    H13     19.119509   18.944227   20.073445 H          1 MOL1         0.0832
      21    O1      18.151019   21.466068   23.738393 O.3        1 MOL1        -0.5509
      22    H14     18.529493   22.246501   23.283595 H          1 MOL1         0.3779
@<TRIPOS>BOND
    1     1     2    1
    2     1     3    1
    3     1     4    1
    4     4     5    1
    5     4     6    1
    6     4     7    1
    7     7     8    1
    8     7     9    1
    9     7    10    1
   10    10    11    1
   11    10    12    1
   12    10    13    1
   13    13    14    1
   14    13    15    1
   15    15    16    1
   16    15    17    1
   17     1    18    1
   18    15    18    1
   19    18    19    1
   20    18    20    1
   21    13    21    1
   22    21    22    1
@<TRIPOS>SUBSTRUCTURE
       1 MOL1            1 RESIDUE      1      MOL     
@<SCITEGIC>MOL_PROPERTY
VConf Rank
SciTegic.value.IntegerValue
347

@<SCITEGIC>MOL_PROPERTY
Conf_Id
SciTegic.value.IntegerValue
76

@<SCITEGIC>MOL_PROPERTY
Delta U+W
SciTegic.value.DoubleValue
-3.175

@<SCITEGIC>MOL_PROPERTY
U+W
SciTegic.value.DoubleValue
3.248

@<SCITEGIC>MOL_PROPERTY
Grad RMS
SciTegic.value.DoubleValue
0.000000

@<SCITEGIC>MOL_PROPERTY
U
SciTegic.value.DoubleValue
5.336

@<SCITEGIC>MOL_PROPERTY
W
SciTegic.value.DoubleValue
-2.088

@<SCITEGIC>MOL_PROPERTY
W(PB)
SciTegic.value.DoubleValue
-4.098

@<SCITEGIC>MOL_PROPERTY
W(SA)
SciTegic.value.DoubleValue
2.010

@<SCITEGIC>MOL_PROPERTY
Valence
SciTegic.value.DoubleValue
12.390

@<SCITEGIC>MOL_PROPERTY
Coulomb
SciTegic.value.DoubleValue
-9.270

@<SCITEGIC>MOL_PROPERTY
VdW
SciTegic.value.DoubleValue
2.216

@<SCITEGIC>MOL_PROPERTY
VdW6
SciTegic.value.DoubleValue
-8.967

@<SCITEGIC>MOL_PROPERTY
VdW12
SciTegic.value.DoubleValue
11.183

@<SCITEGIC>MOL_PROPERTY
Bond
SciTegic.value.DoubleValue
0.218

@<SCITEGIC>MOL_PROPERTY
Angle
SciTegic.value.DoubleValue
2.426

@<SCITEGIC>MOL_PROPERTY
Pdih
SciTegic.value.DoubleValue
9.745

@<SCITEGIC>MOL_PROPERTY
Idih
SciTegic.value.DoubleValue
0.000

@<SCITEGIC>MOL_PROPERTY
Tether
SciTegic.value.DoubleValue
0.000

@<TRIPOS>MOLECULE
guest-5_confgen4.mol2 : confsearch ligand conformer 348
          22          22           1
SMALL
USER_CHARGES
 
@<TRIPOS>ATOM
       1    C1      19.004120   18.888136   24.079005 C.3        1 MOL1        -0.1685
       2    H1      19.153607   19.031337   25.157860 H          1 MOL1         0.0832
       3    H2      18.056595   18.341253   23.979358 H          1 MOL1         0.0832
       4    C2      20.153820   18.000801   23.544681 C.3        1 MOL1        -0.1685
       5    H3      21.084756   18.250436   24.071481 H          1 MOL1         0.0832
       6    H4      19.933084   16.959471   23.816143 H          1 MOL1         0.0832
       7    C3      20.388536   18.082935   22.018343 C.3        1 MOL1        -0.1685
       8    H5      19.436463   18.175270   21.478096 H          1 MOL1         0.0832
       9    H6      20.834197   17.134219   21.690296 H          1 MOL1         0.0832
      10    C4      21.360391   19.223047   21.621203 C.3        1 MOL1        -0.1761
      11    H7      22.272127   19.147466   22.227451 H          1 MOL1         0.0832
      12    H8      21.682252   19.063405   20.583738 H          1 MOL1         0.0832
      13    C5      20.806930   20.661967   21.732063 C.3        1 MOL1         0.1218
      14    H9      21.660628   21.341391   21.595387 H          1 MOL1         0.0789
      15    C6      20.156807   21.015083   23.093362 C.3        1 MOL1        -0.1761
      16    H10     20.878680   20.851597   23.903948 H          1 MOL1         0.0832
      17    H11     19.952049   22.093444   23.092617 H          1 MOL1         0.0832
      18    C7      18.832642   20.270022   23.404311 C.3        1 MOL1        -0.1685
      19    H12     18.222344   20.896200   24.069036 H          1 MOL1         0.0832
      20    H13     18.239946   20.156365   22.487123 H          1 MOL1         0.0832
      21    O1      19.882629   20.892660   20.673540 O.3        1 MOL1        -0.5509
      22    H14     19.519617   21.791303   20.811185 H          1 MOL1         0.3779
@<TRIPOS>BOND
    1     1     2    1
    2     1     3    1
    3     1     4    1
    4     4     5    1
    5     4     6    1
    6     4     7    1
    7     7     8    1
    8     7     9    1
    9     7    10    1
   10    10    11    1
   11    10    12    1
   12    10    13    1
   13    13    14    1
   14    13    15    1
   15    15    16    1
   16    15    17    1
   17     1    18    1
   18    15    18    1
   19    18    19    1
   20    18    20    1
   21    13    21    1
   22    21    22    1
@<TRIPOS>SUBSTRUCTURE
       1 MOL1            1 RESIDUE      1      MOL     
@<SCITEGIC>MOL_PROPERTY
VConf Rank
SciTegic.value.IntegerValue
348

@<SCITEGIC>MOL_PROPERTY
Conf_Id
SciTegic.value.IntegerValue
95

@<SCITEGIC>MOL_PROPERTY
Delta U+W
SciTegic.value.DoubleValue
-2.289

@<SCITEGIC>MOL_PROPERTY
U+W
SciTegic.value.DoubleValue
4.134

@<SCITEGIC>MOL_PROPERTY
Grad RMS
SciTegic.value.DoubleValue
0.000000

@<SCITEGIC>MOL_PROPERTY
U
SciTegic.value.DoubleValue
6.373

@<SCITEGIC>MOL_PROPERTY
W
SciTegic.value.DoubleValue
-2.240

@<SCITEGIC>MOL_PROPERTY
W(PB)
SciTegic.value.DoubleValue
-4.254

@<SCITEGIC>MOL_PROPERTY
W(SA)
SciTegic.value.DoubleValue
2.015

@<SCITEGIC>MOL_PROPERTY
Valence
SciTegic.value.DoubleValue
12.093

@<SCITEGIC>MOL_PROPERTY
Coulomb
SciTegic.value.DoubleValue
-8.058

@<SCITEGIC>MOL_PROPERTY
VdW
SciTegic.value.DoubleValue
2.339

@<SCITEGIC>MOL_PROPERTY
VdW6
SciTegic.value.DoubleValue
-9.683

@<SCITEGIC>MOL_PROPERTY
VdW12
SciTegic.value.DoubleValue
12.022

@<SCITEGIC>MOL_PROPERTY
Bond
SciTegic.value.DoubleValue
0.268

@<SCITEGIC>MOL_PROPERTY
Angle
SciTegic.value.DoubleValue
3.005

@<SCITEGIC>MOL_PROPERTY
Pdih
SciTegic.value.DoubleValue
8.820

@<SCITEGIC>MOL_PROPERTY
Idih
SciTegic.value.DoubleValue
0.000

@<SCITEGIC>MOL_PROPERTY
Tether
SciTegic.value.DoubleValue
0.000

@<TRIPOS>MOLECULE
guest-5_confgen4.mol2 : confsearch ligand conformer 349
          22          22           1
SMALL
USER_CHARGES
 
@<TRIPOS>ATOM
       1    C1      20.966117   19.457244   24.372764 C.3        1 MOL1        -0.1685
       2    H1      20.662525   18.879598   25.256456 H          1 MOL1         0.0832
       3    H2      21.941922   19.894959   24.623762 H          1 MOL1         0.0832
       4    C2      19.942909   20.599495   24.166279 C.3        1 MOL1        -0.1685
       5    H3      18.938889   20.244391   24.435211 H          1 MOL1         0.0832
       6    H4      20.174526   21.396645   24.885796 H          1 MOL1         0.0832
       7    C3      19.911674   21.201919   22.742331 C.3        1 MOL1        -0.1685
       8    H5      20.922776   21.256779   22.316323 H          1 MOL1         0.0832
       9    H6      19.556474   22.238434   22.819113 H          1 MOL1         0.0832
      10    C4      18.950603   20.442441   21.793203 C.3        1 MOL1        -0.1761
      11    H7      17.975381   20.330320   22.284392 H          1 MOL1         0.0832
      12    H8      18.761828   21.067763   20.910979 H          1 MOL1         0.0832
      13    C5      19.424791   19.051942   21.312170 C.3        1 MOL1         0.1218
      14    H9      18.570100   18.583497   20.803091 H          1 MOL1         0.0789
      15    C6      19.870104   18.083538   22.436547 C.3        1 MOL1        -0.1761
      16    H10     19.051932   17.941009   23.154022 H          1 MOL1         0.0832
      17    H11     20.036373   17.102713   21.972687 H          1 MOL1         0.0832
      18    C7      21.168076   18.490346   23.181676 C.3        1 MOL1        -0.1685
      19    H12     21.654949   17.582677   23.562872 H          1 MOL1         0.0832
      20    H13     21.883966   18.927189   22.472952 H          1 MOL1         0.0832
      21    O1      20.473226   19.213325   20.361573 O.3        1 MOL1        -0.5509
      22    H14     20.147197   19.843590   19.687291 H          1 MOL1         0.3779
@<TRIPOS>BOND
    1     1     2    1
    2     1     3    1
    3     1     4    1
    4     4     5    1
    5     4     6    1
    6     4     7    1
    7     7     8    1
    8     7     9    1
    9     7    10    1
   10    10    11    1
   11    10    12    1
   12    10    13    1
   13    13    14    1
   14    13    15    1
   15    15    16    1
   16    15    17    1
   17     1    18    1
   18    15    18    1
   19    18    19    1
   20    18    20    1
   21    13    21    1
   22    21    22    1
@<TRIPOS>SUBSTRUCTURE
       1 MOL1            1 RESIDUE      1      MOL     
@<SCITEGIC>MOL_PROPERTY
VConf Rank
SciTegic.value.IntegerValue
349

@<SCITEGIC>MOL_PROPERTY
Conf_Id
SciTegic.value.IntegerValue
41

@<SCITEGIC>MOL_PROPERTY
Delta U+W
SciTegic.value.DoubleValue
-2.114

@<SCITEGIC>MOL_PROPERTY
U+W
SciTegic.value.DoubleValue
4.310

@<SCITEGIC>MOL_PROPERTY
Grad RMS
SciTegic.value.DoubleValue
0.000000

@<SCITEGIC>MOL_PROPERTY
U
SciTegic.value.DoubleValue
6.598

@<SCITEGIC>MOL_PROPERTY
W
SciTegic.value.DoubleValue
-2.289

@<SCITEGIC>MOL_PROPERTY
W(PB)
SciTegic.value.DoubleValue
-4.294

@<SCITEGIC>MOL_PROPERTY
W(SA)
SciTegic.value.DoubleValue
2.005

@<SCITEGIC>MOL_PROPERTY
Valence
SciTegic.value.DoubleValue
12.082

@<SCITEGIC>MOL_PROPERTY
Coulomb
SciTegic.value.DoubleValue
-7.801

@<SCITEGIC>MOL_PROPERTY
VdW
SciTegic.value.DoubleValue
2.317

@<SCITEGIC>MOL_PROPERTY
VdW6
SciTegic.value.DoubleValue
-9.658

@<SCITEGIC>MOL_PROPERTY
VdW12
SciTegic.value.DoubleValue
11.975

@<SCITEGIC>MOL_PROPERTY
Bond
SciTegic.value.DoubleValue
0.267

@<SCITEGIC>MOL_PROPERTY
Angle
SciTegic.value.DoubleValue
3.051

@<SCITEGIC>MOL_PROPERTY
Pdih
SciTegic.value.DoubleValue
8.764

@<SCITEGIC>MOL_PROPERTY
Idih
SciTegic.value.DoubleValue
0.000

@<SCITEGIC>MOL_PROPERTY
Tether
SciTegic.value.DoubleValue
0.000

@<TRIPOS>MOLECULE
guest-5_confgen4.mol2 : confsearch ligand conformer 350
          22          22           1
SMALL
USER_CHARGES
 
@<TRIPOS>ATOM
       1    C1      20.076848   18.952144   21.155252 C.3        1 MOL1        -0.1685
       2    H1      19.951837   18.793060   20.075616 H          1 MOL1         0.0832
       3    H2      20.864130   18.257836   21.479749 H          1 MOL1         0.0832
       4    C2      18.734403   18.615818   21.842357 C.3        1 MOL1        -0.1685
       5    H3      17.977594   19.357612   21.553283 H          1 MOL1         0.0832
       6    H4      18.374530   17.652413   21.456478 H          1 MOL1         0.0832
       7    C3      18.804159   18.524152   23.382471 C.3        1 MOL1        -0.1685
       8    H5      19.396405   17.645175   23.669759 H          1 MOL1         0.0832
       9    H6      17.789840   18.330049   23.756111 H          1 MOL1         0.0832
      10    C4      19.352953   19.790166   24.094664 C.3        1 MOL1        -0.1761
      11    H7      18.812357   20.680643   23.749609 H          1 MOL1         0.0832
      12    H8      19.119696   19.697476   25.163114 H          1 MOL1         0.0832
      13    C5      20.881243   20.025015   23.979737 C.3        1 MOL1         0.1218
      14    H9      21.150814   20.739573   24.770949 H          1 MOL1         0.0789
      15    C6      21.371538   20.651046   22.648259 C.3        1 MOL1        -0.1761
      16    H10     21.455220   21.735776   22.794617 H          1 MOL1         0.0832
      17    H11     22.394842   20.307803   22.447007 H          1 MOL1         0.0832
      18    C7      20.512363   20.416852   21.381028 C.3        1 MOL1        -0.1685
      19    H12     19.628286   21.068225   21.404128 H          1 MOL1         0.0832
      20    H13     21.098381   20.746836   20.512482 H          1 MOL1         0.0832
      21    O1      21.591608   18.815450   24.231241 O.3        1 MOL1        -0.5509
      22    H14     22.544838   19.032509   24.184899 H          1 MOL1         0.3779
@<TRIPOS>BOND
    1     1     2    1
    2     1     3    1
    3     1     4    1
    4     4     5    1
    5     4     6    1
    6     4     7    1
    7     7     8    1
    8     7     9    1
    9     7    10    1
   10    10    11    1
   11    10    12    1
   12    10    13    1
   13    13    14    1
   14    13    15    1
   15    15    16    1
   16    15    17    1
   17     1    18    1
   18    15    18    1
   19    18    19    1
   20    18    20    1
   21    13    21    1
   22    21    22    1
@<TRIPOS>SUBSTRUCTURE
       1 MOL1            1 RESIDUE      1      MOL     
@<SCITEGIC>MOL_PROPERTY
VConf Rank
SciTegic.value.IntegerValue
350

@<SCITEGIC>MOL_PROPERTY
Conf_Id
SciTegic.value.IntegerValue
104

@<SCITEGIC>MOL_PROPERTY
Delta U+W
SciTegic.value.DoubleValue
-1.172

@<SCITEGIC>MOL_PROPERTY
U+W
SciTegic.value.DoubleValue
5.252

@<SCITEGIC>MOL_PROPERTY
Grad RMS
SciTegic.value.DoubleValue
0.000000

@<SCITEGIC>MOL_PROPERTY
U
SciTegic.value.DoubleValue
7.482

@<SCITEGIC>MOL_PROPERTY
W
SciTegic.value.DoubleValue
-2.230

@<SCITEGIC>MOL_PROPERTY
W(PB)
SciTegic.value.DoubleValue
-4.220

@<SCITEGIC>MOL_PROPERTY
W(SA)
SciTegic.value.DoubleValue
1.990

@<SCITEGIC>MOL_PROPERTY
Valence
SciTegic.value.DoubleValue
12.309

@<SCITEGIC>MOL_PROPERTY
Coulomb
SciTegic.value.DoubleValue
-7.084

@<SCITEGIC>MOL_PROPERTY
VdW
SciTegic.value.DoubleValue
2.258

@<SCITEGIC>MOL_PROPERTY
VdW6
SciTegic.value.DoubleValue
-9.770

@<SCITEGIC>MOL_PROPERTY
VdW12
SciTegic.value.DoubleValue
12.028

@<SCITEGIC>MOL_PROPERTY
Bond
SciTegic.value.DoubleValue
0.284

@<SCITEGIC>MOL_PROPERTY
Angle
SciTegic.value.DoubleValue
3.491

@<SCITEGIC>MOL_PROPERTY
Pdih
SciTegic.value.DoubleValue
8.535

@<SCITEGIC>MOL_PROPERTY
Idih
SciTegic.value.DoubleValue
0.000

@<SCITEGIC>MOL_PROPERTY
Tether
SciTegic.value.DoubleValue
0.000

@<TRIPOS>MOLECULE
guest-5_confgen4.mol2 : confsearch ligand conformer 351
          22          22           1
SMALL
USER_CHARGES
 
@<TRIPOS>ATOM
       1    C1      21.031951   20.338773   23.766381 C.3        1 MOL1        -0.1685
       2    H1      21.882707   19.673460   23.566242 H          1 MOL1         0.0832
       3    H2      21.364812   21.025503   24.556662 H          1 MOL1         0.0832
       4    C2      19.824009   19.542154   24.310220 C.3        1 MOL1        -0.1685
       5    H3      19.988565   19.341759   25.377933 H          1 MOL1         0.0832
       6    H4      18.926461   20.173422   24.274928 H          1 MOL1         0.0832
       7    C3      19.544984   18.186415   23.613233 C.3        1 MOL1        -0.1685
       8    H5      18.480876   17.943191   23.739051 H          1 MOL1         0.0832
       9    H6      20.089200   17.399637   24.153361 H          1 MOL1         0.0832
      10    C4      19.920495   18.067957   22.111180 C.3        1 MOL1        -0.1761
      11    H7      21.002419   17.904475   22.023599 H          1 MOL1         0.0832
      12    H8      19.458604   17.153215   21.717600 H          1 MOL1         0.0832
      13    C5      19.519835   19.243124   21.190076 C.3        1 MOL1         0.1218
      14    H9      19.485032   18.855428   20.161795 H          1 MOL1         0.0789
      15    C6      20.553036   20.392331   21.199470 C.3        1 MOL1        -0.1761
      16    H10     21.535272   19.984237   20.927929 H          1 MOL1         0.0832
      17    H11     20.292106   21.093562   20.396081 H          1 MOL1         0.0832
      18    C7      20.688586   21.189498   22.520433 C.3        1 MOL1        -0.1685
      19    H12     21.482888   21.935731   22.382845 H          1 MOL1         0.0832
      20    H13     19.771409   21.765423   22.703665 H          1 MOL1         0.0832
      21    O1      18.236152   19.736359   21.540855 O.3        1 MOL1        -0.5509
      22    H14     18.324310   19.981869   22.483320 H          1 MOL1         0.3779
@<TRIPOS>BOND
    1     1     2    1
    2     1     3    1
    3     1     4    1
    4     4     5    1
    5     4     6    1
    6     4     7    1
    7     7     8    1
    8     7     9    1
    9     7    10    1
   10    10    11    1
   11    10    12    1
   12    10    13    1
   13    13    14    1
   14    13    15    1
   15    15    16    1
   16    15    17    1
   17     1    18    1
   18    15    18    1
   19    18    19    1
   20    18    20    1
   21    13    21    1
   22    21    22    1
@<TRIPOS>SUBSTRUCTURE
       1 MOL1            1 RESIDUE      1      MOL     
@<SCITEGIC>MOL_PROPERTY
VConf Rank
SciTegic.value.IntegerValue
351

@<SCITEGIC>MOL_PROPERTY
Conf_Id
SciTegic.value.IntegerValue
99

@<SCITEGIC>MOL_PROPERTY
Delta U+W
SciTegic.value.DoubleValue
-3.852

@<SCITEGIC>MOL_PROPERTY
U+W
SciTegic.value.DoubleValue
2.572

@<SCITEGIC>MOL_PROPERTY
Grad RMS
SciTegic.value.DoubleValue
0.000000

@<SCITEGIC>MOL_PROPERTY
U
SciTegic.value.DoubleValue
3.922

@<SCITEGIC>MOL_PROPERTY
W
SciTegic.value.DoubleValue
-1.350

@<SCITEGIC>MOL_PROPERTY
W(PB)
SciTegic.value.DoubleValue
-3.345

@<SCITEGIC>MOL_PROPERTY
W(SA)
SciTegic.value.DoubleValue
1.995

@<SCITEGIC>MOL_PROPERTY
Valence
SciTegic.value.DoubleValue
12.571

@<SCITEGIC>MOL_PROPERTY
Coulomb
SciTegic.value.DoubleValue
-10.581

@<SCITEGIC>MOL_PROPERTY
VdW
SciTegic.value.DoubleValue
1.932

@<SCITEGIC>MOL_PROPERTY
VdW6
SciTegic.value.DoubleValue
-10.483

@<SCITEGIC>MOL_PROPERTY
VdW12
SciTegic.value.DoubleValue
12.415

@<SCITEGIC>MOL_PROPERTY
Bond
SciTegic.value.DoubleValue
0.268

@<SCITEGIC>MOL_PROPERTY
Angle
SciTegic.value.DoubleValue
3.728

@<SCITEGIC>MOL_PROPERTY
Pdih
SciTegic.value.DoubleValue
8.575

@<SCITEGIC>MOL_PROPERTY
Idih
SciTegic.value.DoubleValue
0.000

@<SCITEGIC>MOL_PROPERTY
Tether
SciTegic.value.DoubleValue
0.000

@<TRIPOS>MOLECULE
guest-5_confgen4.mol2 : confsearch ligand conformer 352
          22          22           1
SMALL
USER_CHARGES
 
@<TRIPOS>ATOM
       1    C1      20.859055   18.419308   23.564796 C.3        1 MOL1        -0.1685
       2    H1      20.997098   17.828244   24.480700 H          1 MOL1         0.0832
       3    H2      21.613971   18.037063   22.864764 H          1 MOL1         0.0832
       4    C2      21.152358   19.909004   23.909224 C.3        1 MOL1        -0.1685
       5    H3      21.417511   19.962703   24.974166 H          1 MOL1         0.0832
       6    H4      22.049762   20.250960   23.376507 H          1 MOL1         0.0832
       7    C3      19.990579   20.904723   23.661104 C.3        1 MOL1        -0.1685
       8    H5      20.255140   21.867058   24.120064 H          1 MOL1         0.0832
       9    H6      19.097661   20.575349   24.206797 H          1 MOL1         0.0832
      10    C4      19.627762   21.171328   22.173786 C.3        1 MOL1        -0.1761
      11    H7      18.596781   21.545821   22.134102 H          1 MOL1         0.0832
      12    H8      20.250956   21.998114   21.807657 H          1 MOL1         0.0832
      13    C5      19.763911   20.003115   21.166363 C.3        1 MOL1         0.1218
      14    H9      19.255747   20.316635   20.243190 H          1 MOL1         0.0789
      15    C6      19.132557   18.654531   21.591639 C.3        1 MOL1        -0.1761
      16    H10     18.043060   18.731467   21.482929 H          1 MOL1         0.0832
      17    H11     19.444385   17.897830   20.859407 H          1 MOL1         0.0832
      18    C7      19.441512   18.115649   23.016052 C.3        1 MOL1        -0.1685
      19    H12     18.685129   18.480323   23.722073 H          1 MOL1         0.0832
      20    H13     19.302073   17.026134   23.000608 H          1 MOL1         0.0832
      21    O1      21.132237   19.808057   20.845615 O.3        1 MOL1        -0.5509
      22    H14     21.536628   19.532485   21.692645 H          1 MOL1         0.3779
@<TRIPOS>BOND
    1     1     2    1
    2     1     3    1
    3     1     4    1
    4     4     5    1
    5     4     6    1
    6     4     7    1
    7     7     8    1
    8     7     9    1
    9     7    10    1
   10    10    11    1
   11    10    12    1
   12    10    13    1
   13    13    14    1
   14    13    15    1
   15    15    16    1
   16    15    17    1
   17     1    18    1
   18    15    18    1
   19    18    19    1
   20    18    20    1
   21    13    21    1
   22    21    22    1
@<TRIPOS>SUBSTRUCTURE
       1 MOL1            1 RESIDUE      1      MOL     
@<SCITEGIC>MOL_PROPERTY
VConf Rank
SciTegic.value.IntegerValue
352

@<SCITEGIC>MOL_PROPERTY
Conf_Id
SciTegic.value.IntegerValue
98

@<SCITEGIC>MOL_PROPERTY
Delta U+W
SciTegic.value.DoubleValue
0.930

@<SCITEGIC>MOL_PROPERTY
U+W
SciTegic.value.DoubleValue
7.353

@<SCITEGIC>MOL_PROPERTY
Grad RMS
SciTegic.value.DoubleValue
0.000000

@<SCITEGIC>MOL_PROPERTY
U
SciTegic.value.DoubleValue
8.455

@<SCITEGIC>MOL_PROPERTY
W
SciTegic.value.DoubleValue
-1.102

@<SCITEGIC>MOL_PROPERTY
W(PB)
SciTegic.value.DoubleValue
-3.101

@<SCITEGIC>MOL_PROPERTY
W(SA)
SciTegic.value.DoubleValue
2.000

@<SCITEGIC>MOL_PROPERTY
Valence
SciTegic.value.DoubleValue
15.601

@<SCITEGIC>MOL_PROPERTY
Coulomb
SciTegic.value.DoubleValue
-10.573

@<SCITEGIC>MOL_PROPERTY
VdW
SciTegic.value.DoubleValue
3.427

@<SCITEGIC>MOL_PROPERTY
VdW6
SciTegic.value.DoubleValue
-11.360

@<SCITEGIC>MOL_PROPERTY
VdW12
SciTegic.value.DoubleValue
14.787

@<SCITEGIC>MOL_PROPERTY
Bond
SciTegic.value.DoubleValue
0.471

@<SCITEGIC>MOL_PROPERTY
Angle
SciTegic.value.DoubleValue
5.445

@<SCITEGIC>MOL_PROPERTY
Pdih
SciTegic.value.DoubleValue
9.685

@<SCITEGIC>MOL_PROPERTY
Idih
SciTegic.value.DoubleValue
0.000

@<SCITEGIC>MOL_PROPERTY
Tether
SciTegic.value.DoubleValue
0.000

@<TRIPOS>MOLECULE
guest-5_confgen4.mol2 : confsearch ligand conformer 353
          22          22           1
SMALL
USER_CHARGES
 
@<TRIPOS>ATOM
       1    C1      20.628565   20.683075   23.776686 C.3        1 MOL1        -0.1685
       2    H1      21.203016   19.862022   24.224638 H          1 MOL1         0.0832
       3    H2      20.925682   21.578833   24.338870 H          1 MOL1         0.0832
       4    C2      19.113198   20.443006   23.996206 C.3        1 MOL1        -0.1685
       5    H3      18.941188   20.385010   25.079684 H          1 MOL1         0.0832
       6    H4      18.548322   21.319931   23.651909 H          1 MOL1         0.0832
       7    C3      18.518941   19.164277   23.343248 C.3        1 MOL1        -0.1685
       8    H5      17.957034   19.430068   22.438466 H          1 MOL1         0.0832
       9    H6      17.769392   18.746321   24.028903 H          1 MOL1         0.0832
      10    C4      19.553221   18.058558   23.003601 C.3        1 MOL1        -0.1761
      11    H7      20.154738   17.842273   23.895242 H          1 MOL1         0.0832
      12    H8      19.007927   17.127316   22.799076 H          1 MOL1         0.0832
      13    C5      20.502676   18.359803   21.807081 C.3        1 MOL1         0.1218
      14    H9      21.525934   18.097160   22.112086 H          1 MOL1         0.0789
      15    C6      20.510279   19.824016   21.300839 C.3        1 MOL1        -0.1761
      16    H10     21.117728   19.881473   20.388282 H          1 MOL1         0.0832
      17    H11     19.499158   20.111944   20.988877 H          1 MOL1         0.0832
      18    C7      21.058997   20.870327   22.302812 C.3        1 MOL1        -0.1685
      19    H12     22.156779   20.858570   22.263423 H          1 MOL1         0.0832
      20    H13     20.756011   21.870073   21.963137 H          1 MOL1         0.0832
      21    O1      20.124952   17.532294   20.712673 O.3        1 MOL1        -0.5509
      22    H14     20.771515   17.699451   19.995599 H          1 MOL1         0.3779
@<TRIPOS>BOND
    1     1     2    1
    2     1     3    1
    3     1     4    1
    4     4     5    1
    5     4     6    1
    6     4     7    1
    7     7     8    1
    8     7     9    1
    9     7    10    1
   10    10    11    1
   11    10    12    1
   12    10    13    1
   13    13    14    1
   14    13    15    1
   15    15    16    1
   16    15    17    1
   17     1    18    1
   18    15    18    1
   19    18    19    1
   20    18    20    1
   21    13    21    1
   22    21    22    1
@<TRIPOS>SUBSTRUCTURE
       1 MOL1            1 RESIDUE      1      MOL     
@<SCITEGIC>MOL_PROPERTY
VConf Rank
SciTegic.value.IntegerValue
353

@<SCITEGIC>MOL_PROPERTY
Conf_Id
SciTegic.value.IntegerValue
141

@<SCITEGIC>MOL_PROPERTY
Delta U+W
SciTegic.value.DoubleValue
0.000

@<SCITEGIC>MOL_PROPERTY
U+W
SciTegic.value.DoubleValue
6.423

@<SCITEGIC>MOL_PROPERTY
Grad RMS
SciTegic.value.DoubleValue
0.000000

@<SCITEGIC>MOL_PROPERTY
U
SciTegic.value.DoubleValue
8.781

@<SCITEGIC>MOL_PROPERTY
W
SciTegic.value.DoubleValue
-2.358

@<SCITEGIC>MOL_PROPERTY
W(PB)
SciTegic.value.DoubleValue
-4.373

@<SCITEGIC>MOL_PROPERTY
W(SA)
SciTegic.value.DoubleValue
2.015

@<SCITEGIC>MOL_PROPERTY
Valence
SciTegic.value.DoubleValue
13.328

@<SCITEGIC>MOL_PROPERTY
Coulomb
SciTegic.value.DoubleValue
-8.387

@<SCITEGIC>MOL_PROPERTY
VdW
SciTegic.value.DoubleValue
3.840

@<SCITEGIC>MOL_PROPERTY
VdW6
SciTegic.value.DoubleValue
-9.744

@<SCITEGIC>MOL_PROPERTY
VdW12
SciTegic.value.DoubleValue
13.584

@<SCITEGIC>MOL_PROPERTY
Bond
SciTegic.value.DoubleValue
0.436

@<SCITEGIC>MOL_PROPERTY
Angle
SciTegic.value.DoubleValue
3.478

@<SCITEGIC>MOL_PROPERTY
Pdih
SciTegic.value.DoubleValue
9.415

@<SCITEGIC>MOL_PROPERTY
Idih
SciTegic.value.DoubleValue
0.000

@<SCITEGIC>MOL_PROPERTY
Tether
SciTegic.value.DoubleValue
0.000

@<TRIPOS>MOLECULE
guest-5_confgen4.mol2 : confsearch ligand conformer 354
          22          22           1
SMALL
USER_CHARGES
 
@<TRIPOS>ATOM
       1    C1      19.189889   20.466398   23.960550 C.3        1 MOL1        -0.1685
       2    H1      18.789432   21.172524   23.220530 H          1 MOL1         0.0832
       3    H2      18.769171   20.770207   24.928848 H          1 MOL1         0.0832
       4    C2      20.730035   20.583265   24.060294 C.3        1 MOL1        -0.1685
       5    H3      20.978915   21.554713   24.508850 H          1 MOL1         0.0832
       6    H4      21.108126   19.825743   24.760356 H          1 MOL1         0.0832
       7    C3      21.488631   20.463283   22.718480 C.3        1 MOL1        -0.1685
       8    H5      22.566123   20.493889   22.930380 H          1 MOL1         0.0832
       9    H6      21.279580   21.347457   22.100829 H          1 MOL1         0.0832
      10    C4      21.181071   19.181986   21.905544 C.3        1 MOL1        -0.1761
      11    H7      21.935809   19.103171   21.112043 H          1 MOL1         0.0832
      12    H8      21.301326   18.288151   22.531319 H          1 MOL1         0.0832
      13    C5      19.776713   19.206879   21.261505 C.3        1 MOL1         0.1218
      14    H9      19.534290   20.248080   21.004645 H          1 MOL1         0.0789
      15    C6      18.647964   18.653944   22.161218 C.3        1 MOL1        -0.1761
      16    H10     17.693708   19.009669   21.751702 H          1 MOL1         0.0832
      17    H11     18.621066   17.559131   22.078929 H          1 MOL1         0.0832
      18    C7      18.713640   19.025146   23.663863 C.3        1 MOL1        -0.1685
      19    H12     17.711733   18.885210   24.092142 H          1 MOL1         0.0832
      20    H13     19.360890   18.310935   24.190817 H          1 MOL1         0.0832
      21    O1      19.806415   18.434962   20.067151 O.3        1 MOL1        -0.5509
      22    H14     20.474532   18.847766   19.480780 H          1 MOL1         0.3779
@<TRIPOS>BOND
    1     1     2    1
    2     1     3    1
    3     1     4    1
    4     4     5    1
    5     4     6    1
    6     4     7    1
    7     7     8    1
    8     7     9    1
    9     7    10    1
   10    10    11    1
   11    10    12    1
   12    10    13    1
   13    13    14    1
   14    13    15    1
   15    15    16    1
   16    15    17    1
   17     1    18    1
   18    15    18    1
   19    18    19    1
   20    18    20    1
   21    13    21    1
   22    21    22    1
@<TRIPOS>SUBSTRUCTURE
       1 MOL1            1 RESIDUE      1      MOL     
@<SCITEGIC>MOL_PROPERTY
VConf Rank
SciTegic.value.IntegerValue
354

@<SCITEGIC>MOL_PROPERTY
Conf_Id
SciTegic.value.IntegerValue
144

@<SCITEGIC>MOL_PROPERTY
Delta U+W
SciTegic.value.DoubleValue
-3.291

@<SCITEGIC>MOL_PROPERTY
U+W
SciTegic.value.DoubleValue
3.132

@<SCITEGIC>MOL_PROPERTY
Grad RMS
SciTegic.value.DoubleValue
0.000000

@<SCITEGIC>MOL_PROPERTY
U
SciTegic.value.DoubleValue
5.411

@<SCITEGIC>MOL_PROPERTY
W
SciTegic.value.DoubleValue
-2.279

@<SCITEGIC>MOL_PROPERTY
W(PB)
SciTegic.value.DoubleValue
-4.300

@<SCITEGIC>MOL_PROPERTY
W(SA)
SciTegic.value.DoubleValue
2.021

@<SCITEGIC>MOL_PROPERTY
Valence
SciTegic.value.DoubleValue
11.909

@<SCITEGIC>MOL_PROPERTY
Coulomb
SciTegic.value.DoubleValue
-8.733

@<SCITEGIC>MOL_PROPERTY
VdW
SciTegic.value.DoubleValue
2.236

@<SCITEGIC>MOL_PROPERTY
VdW6
SciTegic.value.DoubleValue
-8.936

@<SCITEGIC>MOL_PROPERTY
VdW12
SciTegic.value.DoubleValue
11.172

@<SCITEGIC>MOL_PROPERTY
Bond
SciTegic.value.DoubleValue
0.223

@<SCITEGIC>MOL_PROPERTY
Angle
SciTegic.value.DoubleValue
2.457

@<SCITEGIC>MOL_PROPERTY
Pdih
SciTegic.value.DoubleValue
9.228

@<SCITEGIC>MOL_PROPERTY
Idih
SciTegic.value.DoubleValue
0.000

@<SCITEGIC>MOL_PROPERTY
Tether
SciTegic.value.DoubleValue
0.000

@<TRIPOS>MOLECULE
guest-5_confgen4.mol2 : confsearch ligand conformer 355
          22          22           1
SMALL
USER_CHARGES
 
@<TRIPOS>ATOM
       1    C1      18.208512   19.492606   22.698248 C.3        1 MOL1        -0.1685
       2    H1      17.146351   19.700603   22.886504 H          1 MOL1         0.0832
       3    H2      18.235614   18.583501   22.082232 H          1 MOL1         0.0832
       4    C2      18.898426   19.255031   24.061938 C.3        1 MOL1        -0.1685
       5    H3      19.151366   20.222304   24.517107 H          1 MOL1         0.0832
       6    H4      18.178414   18.788057   24.747880 H          1 MOL1         0.0832
       7    C3      20.159488   18.358831   24.012241 C.3        1 MOL1        -0.1685
       8    H5      19.850148   17.304952   24.035942 H          1 MOL1         0.0832
       9    H6      20.732144   18.522265   24.935481 H          1 MOL1         0.0832
      10    C4      21.096644   18.558925   22.795753 C.3        1 MOL1        -0.1761
      11    H7      22.074180   18.127578   23.050374 H          1 MOL1         0.0832
      12    H8      20.721427   17.967511   21.950569 H          1 MOL1         0.0832
      13    C5      21.281182   20.026883   22.350065 C.3        1 MOL1         0.1218
      14    H9      21.256084   20.684900   23.230323 H          1 MOL1         0.0789
      15    C6      20.206270   20.477516   21.334943 C.3        1 MOL1        -0.1761
      16    H10     20.532004   21.418864   20.872458 H          1 MOL1         0.0832
      17    H11     20.142480   19.745211   20.519624 H          1 MOL1         0.0832
      18    C7      18.794827   20.700191   21.928205 C.3        1 MOL1        -0.1685
      19    H12     18.811272   21.579535   22.586542 H          1 MOL1         0.0832
      20    H13     18.113161   20.955295   21.105380 H          1 MOL1         0.0832
      21    O1      22.551057   20.147163   21.723039 O.3        1 MOL1        -0.5509
      22    H14     22.535022   19.547901   20.948580 H          1 MOL1         0.3779
@<TRIPOS>BOND
    1     1     2    1
    2     1     3    1
    3     1     4    1
    4     4     5    1
    5     4     6    1
    6     4     7    1
    7     7     8    1
    8     7     9    1
    9     7    10    1
   10    10    11    1
   11    10    12    1
   12    10    13    1
   13    13    14    1
   14    13    15    1
   15    15    16    1
   16    15    17    1
   17     1    18    1
   18    15    18    1
   19    18    19    1
   20    18    20    1
   21    13    21    1
   22    21    22    1
@<TRIPOS>SUBSTRUCTURE
       1 MOL1            1 RESIDUE      1      MOL     
@<SCITEGIC>MOL_PROPERTY
VConf Rank
SciTegic.value.IntegerValue
355

@<SCITEGIC>MOL_PROPERTY
Conf_Id
SciTegic.value.IntegerValue
76

@<SCITEGIC>MOL_PROPERTY
Delta U+W
SciTegic.value.DoubleValue
-3.175

@<SCITEGIC>MOL_PROPERTY
U+W
SciTegic.value.DoubleValue
3.248

@<SCITEGIC>MOL_PROPERTY
Grad RMS
SciTegic.value.DoubleValue
0.000000

@<SCITEGIC>MOL_PROPERTY
U
SciTegic.value.DoubleValue
5.336

@<SCITEGIC>MOL_PROPERTY
W
SciTegic.value.DoubleValue
-2.088

@<SCITEGIC>MOL_PROPERTY
W(PB)
SciTegic.value.DoubleValue
-4.098

@<SCITEGIC>MOL_PROPERTY
W(SA)
SciTegic.value.DoubleValue
2.010

@<SCITEGIC>MOL_PROPERTY
Valence
SciTegic.value.DoubleValue
12.390

@<SCITEGIC>MOL_PROPERTY
Coulomb
SciTegic.value.DoubleValue
-9.270

@<SCITEGIC>MOL_PROPERTY
VdW
SciTegic.value.DoubleValue
2.216

@<SCITEGIC>MOL_PROPERTY
VdW6
SciTegic.value.DoubleValue
-8.967

@<SCITEGIC>MOL_PROPERTY
VdW12
SciTegic.value.DoubleValue
11.183

@<SCITEGIC>MOL_PROPERTY
Bond
SciTegic.value.DoubleValue
0.218

@<SCITEGIC>MOL_PROPERTY
Angle
SciTegic.value.DoubleValue
2.426

@<SCITEGIC>MOL_PROPERTY
Pdih
SciTegic.value.DoubleValue
9.745

@<SCITEGIC>MOL_PROPERTY
Idih
SciTegic.value.DoubleValue
0.000

@<SCITEGIC>MOL_PROPERTY
Tether
SciTegic.value.DoubleValue
0.000

@<TRIPOS>MOLECULE
guest-5_confgen4.mol2 : confsearch ligand conformer 356
          22          22           1
SMALL
USER_CHARGES
 
@<TRIPOS>ATOM
       1    C1      21.210976   20.927830   23.266607 C.3        1 MOL1        -0.1685
       2    H1      20.934861   21.960717   23.518966 H          1 MOL1         0.0832
       3    H2      22.280395   20.839219   23.501778 H          1 MOL1         0.0832
       4    C2      21.014497   20.732550   21.744130 C.3        1 MOL1        -0.1685
       5    H3      20.132561   21.297304   21.412888 H          1 MOL1         0.0832
       6    H4      21.868618   21.193767   21.229796 H          1 MOL1         0.0832
       7    C3      20.885988   19.261630   21.284326 C.3        1 MOL1        -0.1685
       8    H5      21.550693   18.608035   21.865546 H          1 MOL1         0.0832
       9    H6      21.230520   19.198382   20.243370 H          1 MOL1         0.0832
      10    C4      19.425858   18.743959   21.330365 C.3        1 MOL1        -0.1761
      11    H7      18.774817   19.453320   20.803616 H          1 MOL1         0.0832
      12    H8      19.367483   17.809106   20.757604 H          1 MOL1         0.0832
      13    C5      18.839098   18.478968   22.735566 C.3        1 MOL1         0.1218
      14    H9      17.762708   18.299118   22.600891 H          1 MOL1         0.0789
      15    C6      18.983412   19.648539   23.741431 C.3        1 MOL1        -0.1761
      16    H10     18.517398   20.553044   23.329629 H          1 MOL1         0.0832
      17    H11     18.396231   19.392869   24.632856 H          1 MOL1         0.0832
      18    C7      20.435788   19.957232   24.189238 C.3        1 MOL1        -0.1685
      19    H12     20.409589   20.397222   25.195293 H          1 MOL1         0.0832
      20    H13     21.003879   19.023687   24.295104 H          1 MOL1         0.0832
      21    O1      19.422537   17.296228   23.272918 O.3        1 MOL1        -0.5509
      22    H14     19.064315   17.195081   24.178308 H          1 MOL1         0.3779
@<TRIPOS>BOND
    1     1     2    1
    2     1     3    1
    3     1     4    1
    4     4     5    1
    5     4     6    1
    6     4     7    1
    7     7     8    1
    8     7     9    1
    9     7    10    1
   10    10    11    1
   11    10    12    1
   12    10    13    1
   13    13    14    1
   14    13    15    1
   15    15    16    1
   16    15    17    1
   17     1    18    1
   18    15    18    1
   19    18    19    1
   20    18    20    1
   21    13    21    1
   22    21    22    1
@<TRIPOS>SUBSTRUCTURE
       1 MOL1            1 RESIDUE      1      MOL     
@<SCITEGIC>MOL_PROPERTY
VConf Rank
SciTegic.value.IntegerValue
356

@<SCITEGIC>MOL_PROPERTY
Conf_Id
SciTegic.value.IntegerValue
95

@<SCITEGIC>MOL_PROPERTY
Delta U+W
SciTegic.value.DoubleValue
-2.289

@<SCITEGIC>MOL_PROPERTY
U+W
SciTegic.value.DoubleValue
4.134

@<SCITEGIC>MOL_PROPERTY
Grad RMS
SciTegic.value.DoubleValue
0.000000

@<SCITEGIC>MOL_PROPERTY
U
SciTegic.value.DoubleValue
6.373

@<SCITEGIC>MOL_PROPERTY
W
SciTegic.value.DoubleValue
-2.240

@<SCITEGIC>MOL_PROPERTY
W(PB)
SciTegic.value.DoubleValue
-4.254

@<SCITEGIC>MOL_PROPERTY
W(SA)
SciTegic.value.DoubleValue
2.015

@<SCITEGIC>MOL_PROPERTY
Valence
SciTegic.value.DoubleValue
12.093

@<SCITEGIC>MOL_PROPERTY
Coulomb
SciTegic.value.DoubleValue
-8.058

@<SCITEGIC>MOL_PROPERTY
VdW
SciTegic.value.DoubleValue
2.339

@<SCITEGIC>MOL_PROPERTY
VdW6
SciTegic.value.DoubleValue
-9.683

@<SCITEGIC>MOL_PROPERTY
VdW12
SciTegic.value.DoubleValue
12.022

@<SCITEGIC>MOL_PROPERTY
Bond
SciTegic.value.DoubleValue
0.268

@<SCITEGIC>MOL_PROPERTY
Angle
SciTegic.value.DoubleValue
3.005

@<SCITEGIC>MOL_PROPERTY
Pdih
SciTegic.value.DoubleValue
8.820

@<SCITEGIC>MOL_PROPERTY
Idih
SciTegic.value.DoubleValue
0.000

@<SCITEGIC>MOL_PROPERTY
Tether
SciTegic.value.DoubleValue
0.000

@<TRIPOS>MOLECULE
guest-5_confgen4.mol2 : confsearch ligand conformer 357
          22          22           1
SMALL
USER_CHARGES
 
@<TRIPOS>ATOM
       1    C1      21.922539   19.930859   22.516719 C.3        1 MOL1        -0.1685
       2    H1      22.709445   19.788891   23.269965 H          1 MOL1         0.0832
       3    H2      22.440060   20.249621   21.601650 H          1 MOL1         0.0832
       4    C2      20.997083   21.075653   22.993485 C.3        1 MOL1        -0.1685
       5    H3      20.893269   21.031271   24.086066 H          1 MOL1         0.0832
       6    H4      21.501797   22.028931   22.785342 H          1 MOL1         0.0832
       7    C3      19.594043   21.097969   22.343488 C.3        1 MOL1        -0.1685
       8    H5      19.646466   20.809075   21.284899 H          1 MOL1         0.0832
       9    H6      19.228196   22.133505   22.359217 H          1 MOL1         0.0832
      10    C4      18.567915   20.222939   23.106832 C.3        1 MOL1        -0.1761
      11    H7      18.602518   20.477659   24.173985 H          1 MOL1         0.0832
      12    H8      17.557903   20.496400   22.775052 H          1 MOL1         0.0832
      13    C5      18.731906   18.693003   22.958042 C.3        1 MOL1         0.1218
      14    H9      18.052274   18.228357   23.686949 H          1 MOL1         0.0789
      15    C6      20.153313   18.151990   23.253411 C.3        1 MOL1        -0.1761
      16    H10     20.458604   18.435602   24.268719 H          1 MOL1         0.0832
      17    H11     20.089382   17.056207   23.254638 H          1 MOL1         0.0832
      18    C7      21.243430   18.569851   22.232393 C.3        1 MOL1        -0.1685
      19    H12     22.025812   17.799232   22.216855 H          1 MOL1         0.0832
      20    H13     20.822399   18.575656   21.218332 H          1 MOL1         0.0832
      21    O1      18.319538   18.298567   21.652950 O.3        1 MOL1        -0.5509
      22    H14     17.428443   18.678580   21.512503 H          1 MOL1         0.3779
@<TRIPOS>BOND
    1     1     2    1
    2     1     3    1
    3     1     4    1
    4     4     5    1
    5     4     6    1
    6     4     7    1
    7     7     8    1
    8     7     9    1
    9     7    10    1
   10    10    11    1
   11    10    12    1
   12    10    13    1
   13    13    14    1
   14    13    15    1
   15    15    16    1
   16    15    17    1
   17     1    18    1
   18    15    18    1
   19    18    19    1
   20    18    20    1
   21    13    21    1
   22    21    22    1
@<TRIPOS>SUBSTRUCTURE
       1 MOL1            1 RESIDUE      1      MOL     
@<SCITEGIC>MOL_PROPERTY
VConf Rank
SciTegic.value.IntegerValue
357

@<SCITEGIC>MOL_PROPERTY
Conf_Id
SciTegic.value.IntegerValue
41

@<SCITEGIC>MOL_PROPERTY
Delta U+W
SciTegic.value.DoubleValue
-2.114

@<SCITEGIC>MOL_PROPERTY
U+W
SciTegic.value.DoubleValue
4.310

@<SCITEGIC>MOL_PROPERTY
Grad RMS
SciTegic.value.DoubleValue
0.000000

@<SCITEGIC>MOL_PROPERTY
U
SciTegic.value.DoubleValue
6.598

@<SCITEGIC>MOL_PROPERTY
W
SciTegic.value.DoubleValue
-2.289

@<SCITEGIC>MOL_PROPERTY
W(PB)
SciTegic.value.DoubleValue
-4.294

@<SCITEGIC>MOL_PROPERTY
W(SA)
SciTegic.value.DoubleValue
2.005

@<SCITEGIC>MOL_PROPERTY
Valence
SciTegic.value.DoubleValue
12.082

@<SCITEGIC>MOL_PROPERTY
Coulomb
SciTegic.value.DoubleValue
-7.801

@<SCITEGIC>MOL_PROPERTY
VdW
SciTegic.value.DoubleValue
2.317

@<SCITEGIC>MOL_PROPERTY
VdW6
SciTegic.value.DoubleValue
-9.658

@<SCITEGIC>MOL_PROPERTY
VdW12
SciTegic.value.DoubleValue
11.975

@<SCITEGIC>MOL_PROPERTY
Bond
SciTegic.value.DoubleValue
0.267

@<SCITEGIC>MOL_PROPERTY
Angle
SciTegic.value.DoubleValue
3.051

@<SCITEGIC>MOL_PROPERTY
Pdih
SciTegic.value.DoubleValue
8.764

@<SCITEGIC>MOL_PROPERTY
Idih
SciTegic.value.DoubleValue
0.000

@<SCITEGIC>MOL_PROPERTY
Tether
SciTegic.value.DoubleValue
0.000

@<TRIPOS>MOLECULE
guest-5_confgen4.mol2 : confsearch ligand conformer 358
          22          22           1
SMALL
USER_CHARGES
 
@<TRIPOS>ATOM
       1    C1      20.185685   19.853736   21.082098 C.3        1 MOL1        -0.1685
       2    H1      20.311346   20.302984   20.087646 H          1 MOL1         0.0832
       3    H2      20.272348   18.767379   20.942474 H          1 MOL1         0.0832
       4    C2      18.777639   20.227959   21.596635 C.3        1 MOL1        -0.1685
       5    H3      18.731696   21.308511   21.788668 H          1 MOL1         0.0832
       6    H4      18.049050   20.032802   20.798117 H          1 MOL1         0.0832
       7    C3      18.328192   19.460641   22.859347 C.3        1 MOL1        -0.1685
       8    H5      18.169741   18.403583   22.607530 H          1 MOL1         0.0832
       9    H6      17.342123   19.843426   23.154758 H          1 MOL1         0.0832
      10    C4      19.283071   19.578856   24.078125 C.3        1 MOL1        -0.1761
      11    H7      19.503951   20.634147   24.282649 H          1 MOL1         0.0832
      12    H8      18.742296   19.212985   24.960329 H          1 MOL1         0.0832
      13    C5      20.604477   18.772987   23.985960 C.3        1 MOL1         0.1218
      14    H9      21.000086   18.698016   25.009264 H          1 MOL1         0.0789
      15    C6      21.730604   19.414770   23.134437 C.3        1 MOL1        -0.1761
      16    H10     22.392969   19.969474   23.811665 H          1 MOL1         0.0832
      17    H11     22.355299   18.618453   22.708872 H          1 MOL1         0.0832
      18    C7      21.314372   20.379332   21.996337 C.3        1 MOL1        -0.1685
      19    H12     21.028496   21.352431   22.417959 H          1 MOL1         0.0832
      20    H13     22.202700   20.574996   21.380490 H          1 MOL1         0.0832
      21    O1      20.349575   17.448986   23.524476 O.3        1 MOL1        -0.5509
      22    H14     21.208172   16.979178   23.524972 H          1 MOL1         0.3779
@<TRIPOS>BOND
    1     1     2    1
    2     1     3    1
    3     1     4    1
    4     4     5    1
    5     4     6    1
    6     4     7    1
    7     7     8    1
    8     7     9    1
    9     7    10    1
   10    10    11    1
   11    10    12    1
   12    10    13    1
   13    13    14    1
   14    13    15    1
   15    15    16    1
   16    15    17    1
   17     1    18    1
   18    15    18    1
   19    18    19    1
   20    18    20    1
   21    13    21    1
   22    21    22    1
@<TRIPOS>SUBSTRUCTURE
       1 MOL1            1 RESIDUE      1      MOL     
@<SCITEGIC>MOL_PROPERTY
VConf Rank
SciTegic.value.IntegerValue
358

@<SCITEGIC>MOL_PROPERTY
Conf_Id
SciTegic.value.IntegerValue
104

@<SCITEGIC>MOL_PROPERTY
Delta U+W
SciTegic.value.DoubleValue
-1.172

@<SCITEGIC>MOL_PROPERTY
U+W
SciTegic.value.DoubleValue
5.252

@<SCITEGIC>MOL_PROPERTY
Grad RMS
SciTegic.value.DoubleValue
0.000000

@<SCITEGIC>MOL_PROPERTY
U
SciTegic.value.DoubleValue
7.482

@<SCITEGIC>MOL_PROPERTY
W
SciTegic.value.DoubleValue
-2.230

@<SCITEGIC>MOL_PROPERTY
W(PB)
SciTegic.value.DoubleValue
-4.220

@<SCITEGIC>MOL_PROPERTY
W(SA)
SciTegic.value.DoubleValue
1.990

@<SCITEGIC>MOL_PROPERTY
Valence
SciTegic.value.DoubleValue
12.309

@<SCITEGIC>MOL_PROPERTY
Coulomb
SciTegic.value.DoubleValue
-7.084

@<SCITEGIC>MOL_PROPERTY
VdW
SciTegic.value.DoubleValue
2.258

@<SCITEGIC>MOL_PROPERTY
VdW6
SciTegic.value.DoubleValue
-9.770

@<SCITEGIC>MOL_PROPERTY
VdW12
SciTegic.value.DoubleValue
12.028

@<SCITEGIC>MOL_PROPERTY
Bond
SciTegic.value.DoubleValue
0.284

@<SCITEGIC>MOL_PROPERTY
Angle
SciTegic.value.DoubleValue
3.491

@<SCITEGIC>MOL_PROPERTY
Pdih
SciTegic.value.DoubleValue
8.535

@<SCITEGIC>MOL_PROPERTY
Idih
SciTegic.value.DoubleValue
0.000

@<SCITEGIC>MOL_PROPERTY
Tether
SciTegic.value.DoubleValue
0.000

@<TRIPOS>MOLECULE
guest-5_confgen4.mol2 : confsearch ligand conformer 359
          22          22           1
SMALL
USER_CHARGES
 
@<TRIPOS>ATOM
       1    C1      19.528636   18.516090   23.796483 C.3        1 MOL1        -0.1685
       2    H1      20.529131   18.094562   23.963234 H          1 MOL1         0.0832
       3    H2      18.849457   17.948964   24.447653 H          1 MOL1         0.0832
       4    C2      19.074187   18.298204   22.335152 C.3        1 MOL1        -0.1685
       5    H3      18.715923   17.264835   22.230071 H          1 MOL1         0.0832
       6    H4      18.196592   18.925141   22.129934 H          1 MOL1         0.0832
       7    C3      20.157773   18.534280   21.252662 C.3        1 MOL1        -0.1685
       8    H5      19.656830   18.796055   20.310406 H          1 MOL1         0.0832
       9    H6      20.666525   17.580520   21.056598 H          1 MOL1         0.0832
      10    C4      21.251307   19.593156   21.559529 C.3        1 MOL1        -0.1761
      11    H7      21.999839   19.151932   22.230332 H          1 MOL1         0.0832
      12    H8      21.789935   19.804109   20.626587 H          1 MOL1         0.0832
      13    C5      20.780743   20.938910   22.157439 C.3        1 MOL1         0.1218
      14    H9      21.562999   21.682027   21.945935 H          1 MOL1         0.0789
      15    C6      20.616013   20.888474   23.693209 C.3        1 MOL1        -0.1761
      16    H10     21.564232   20.559527   24.137886 H          1 MOL1         0.0832
      17    H11     20.460159   21.913403   24.054421 H          1 MOL1         0.0832
      18    C7      19.471217   19.998216   24.236967 C.3        1 MOL1        -0.1685
      19    H12     19.509958   20.033594   25.334217 H          1 MOL1         0.0832
      20    H13     18.499966   20.431316   23.962056 H          1 MOL1         0.0832
      21    O1      19.569208   21.358454   21.548888 O.3        1 MOL1        -0.5509
      22    H14     18.953080   20.615750   21.707198 H          1 MOL1         0.3779
@<TRIPOS>BOND
    1     1     2    1
    2     1     3    1
    3     1     4    1
    4     4     5    1
    5     4     6    1
    6     4     7    1
    7     7     8    1
    8     7     9    1
    9     7    10    1
   10    10    11    1
   11    10    12    1
   12    10    13    1
   13    13    14    1
   14    13    15    1
   15    15    16    1
   16    15    17    1
   17     1    18    1
   18    15    18    1
   19    18    19    1
   20    18    20    1
   21    13    21    1
   22    21    22    1
@<TRIPOS>SUBSTRUCTURE
       1 MOL1            1 RESIDUE      1      MOL     
@<SCITEGIC>MOL_PROPERTY
VConf Rank
SciTegic.value.IntegerValue
359

@<SCITEGIC>MOL_PROPERTY
Conf_Id
SciTegic.value.IntegerValue
99

@<SCITEGIC>MOL_PROPERTY
Delta U+W
SciTegic.value.DoubleValue
-3.852

@<SCITEGIC>MOL_PROPERTY
U+W
SciTegic.value.DoubleValue
2.572

@<SCITEGIC>MOL_PROPERTY
Grad RMS
SciTegic.value.DoubleValue
0.000000

@<SCITEGIC>MOL_PROPERTY
U
SciTegic.value.DoubleValue
3.922

@<SCITEGIC>MOL_PROPERTY
W
SciTegic.value.DoubleValue
-1.350

@<SCITEGIC>MOL_PROPERTY
W(PB)
SciTegic.value.DoubleValue
-3.345

@<SCITEGIC>MOL_PROPERTY
W(SA)
SciTegic.value.DoubleValue
1.995

@<SCITEGIC>MOL_PROPERTY
Valence
SciTegic.value.DoubleValue
12.571

@<SCITEGIC>MOL_PROPERTY
Coulomb
SciTegic.value.DoubleValue
-10.581

@<SCITEGIC>MOL_PROPERTY
VdW
SciTegic.value.DoubleValue
1.932

@<SCITEGIC>MOL_PROPERTY
VdW6
SciTegic.value.DoubleValue
-10.483

@<SCITEGIC>MOL_PROPERTY
VdW12
SciTegic.value.DoubleValue
12.415

@<SCITEGIC>MOL_PROPERTY
Bond
SciTegic.value.DoubleValue
0.268

@<SCITEGIC>MOL_PROPERTY
Angle
SciTegic.value.DoubleValue
3.728

@<SCITEGIC>MOL_PROPERTY
Pdih
SciTegic.value.DoubleValue
8.575

@<SCITEGIC>MOL_PROPERTY
Idih
SciTegic.value.DoubleValue
0.000

@<SCITEGIC>MOL_PROPERTY
Tether
SciTegic.value.DoubleValue
0.000

@<TRIPOS>MOLECULE
guest-5_confgen4.mol2 : confsearch ligand conformer 360
          22          22           1
SMALL
USER_CHARGES
 
@<TRIPOS>ATOM
       1    C1      18.752398   19.917508   21.715086 C.3        1 MOL1        -0.1685
       2    H1      17.681422   20.120795   21.577334 H          1 MOL1         0.0832
       3    H2      19.181440   19.963557   20.705206 H          1 MOL1         0.0832
       4    C2      18.894769   18.479033   22.293336 C.3        1 MOL1        -0.1685
       5    H3      17.885424   18.059645   22.405713 H          1 MOL1         0.0832
       6    H4      19.393151   17.825864   21.564612 H          1 MOL1         0.0832
       7    C3      19.608404   18.366068   23.664727 C.3        1 MOL1        -0.1685
       8    H5      19.470193   17.344433   24.044049 H          1 MOL1         0.0832
       9    H6      19.101574   19.003806   24.399562 H          1 MOL1         0.0832
      10    C4      21.131998   18.671820   23.667102 C.3        1 MOL1        -0.1761
      11    H7      21.425636   18.943634   24.689176 H          1 MOL1         0.0832
      12    H8      21.672718   17.741508   23.447696 H          1 MOL1         0.0832
      13    C5      21.662010   19.758600   22.699551 C.3        1 MOL1         0.1218
      14    H9      22.693347   19.984078   23.006599 H          1 MOL1         0.0789
      15    C6      20.891657   21.101956   22.689830 C.3        1 MOL1        -0.1761
      16    H10     21.157062   21.661108   23.596279 H          1 MOL1         0.0832
      17    H11     21.280981   21.700462   21.855435 H          1 MOL1         0.0832
      18    C7      19.342029   21.059248   22.581988 C.3        1 MOL1        -0.1685
      19    H12     18.901676   21.026897   23.586284 H          1 MOL1         0.0832
      20    H13     19.007727   22.018922   22.164864 H          1 MOL1         0.0832
      21    O1      21.722310   19.234833   21.382253 O.3        1 MOL1        -0.5509
      22    H14     20.787943   19.052128   21.157508 H          1 MOL1         0.3779
@<TRIPOS>BOND
    1     1     2    1
    2     1     3    1
    3     1     4    1
    4     4     5    1
    5     4     6    1
    6     4     7    1
    7     7     8    1
    8     7     9    1
    9     7    10    1
   10    10    11    1
   11    10    12    1
   12    10    13    1
   13    13    14    1
   14    13    15    1
   15    15    16    1
   16    15    17    1
   17     1    18    1
   18    15    18    1
   19    18    19    1
   20    18    20    1
   21    13    21    1
   22    21    22    1
@<TRIPOS>SUBSTRUCTURE
       1 MOL1            1 RESIDUE      1      MOL     
@<SCITEGIC>MOL_PROPERTY
VConf Rank
SciTegic.value.IntegerValue
360

@<SCITEGIC>MOL_PROPERTY
Conf_Id
SciTegic.value.IntegerValue
98

@<SCITEGIC>MOL_PROPERTY
Delta U+W
SciTegic.value.DoubleValue
0.930

@<SCITEGIC>MOL_PROPERTY
U+W
SciTegic.value.DoubleValue
7.353

@<SCITEGIC>MOL_PROPERTY
Grad RMS
SciTegic.value.DoubleValue
0.000000

@<SCITEGIC>MOL_PROPERTY
U
SciTegic.value.DoubleValue
8.455

@<SCITEGIC>MOL_PROPERTY
W
SciTegic.value.DoubleValue
-1.102

@<SCITEGIC>MOL_PROPERTY
W(PB)
SciTegic.value.DoubleValue
-3.101

@<SCITEGIC>MOL_PROPERTY
W(SA)
SciTegic.value.DoubleValue
2.000

@<SCITEGIC>MOL_PROPERTY
Valence
SciTegic.value.DoubleValue
15.601

@<SCITEGIC>MOL_PROPERTY
Coulomb
SciTegic.value.DoubleValue
-10.573

@<SCITEGIC>MOL_PROPERTY
VdW
SciTegic.value.DoubleValue
3.427

@<SCITEGIC>MOL_PROPERTY
VdW6
SciTegic.value.DoubleValue
-11.360

@<SCITEGIC>MOL_PROPERTY
VdW12
SciTegic.value.DoubleValue
14.787

@<SCITEGIC>MOL_PROPERTY
Bond
SciTegic.value.DoubleValue
0.471

@<SCITEGIC>MOL_PROPERTY
Angle
SciTegic.value.DoubleValue
5.445

@<SCITEGIC>MOL_PROPERTY
Pdih
SciTegic.value.DoubleValue
9.685

@<SCITEGIC>MOL_PROPERTY
Idih
SciTegic.value.DoubleValue
0.000

@<SCITEGIC>MOL_PROPERTY
Tether
SciTegic.value.DoubleValue
0.000

@<TRIPOS>MOLECULE
guest-5_confgen4.mol2 : confsearch ligand conformer 361
          22          22           1
SMALL
USER_CHARGES
 
@<TRIPOS>ATOM
       1    C1      18.784092   20.078128   23.723345 C.3        1 MOL1        -0.1685
       2    H1      19.583251   20.334474   24.430743 H          1 MOL1         0.0832
       3    H2      17.856214   20.409466   24.209112 H          1 MOL1         0.0832
       4    C2      18.721924   18.540640   23.537805 C.3        1 MOL1        -0.1685
       5    H3      18.534335   18.095848   24.524641 H          1 MOL1         0.0832
       6    H4      17.849786   18.279410   22.923186 H          1 MOL1         0.0832
       7    C3      19.988679   17.869658   22.938005 C.3        1 MOL1        -0.1685
       8    H5      19.818725   17.620773   21.882454 H          1 MOL1         0.0832
       9    H6      20.132369   16.901701   23.437052 H          1 MOL1         0.0832
      10    C4      21.295266   18.696062   23.070651 C.3        1 MOL1        -0.1761
      11    H7      21.426552   18.996182   24.117703 H          1 MOL1         0.0832
      12    H8      22.145367   18.033591   22.858878 H          1 MOL1         0.0832
      13    C5      21.398827   19.955315   22.161020 C.3        1 MOL1         0.1218
      14    H9      21.761117   20.790173   22.778131 H          1 MOL1         0.0789
      15    C6      20.086137   20.400321   21.468869 C.3        1 MOL1        -0.1761
      16    H10     20.312279   21.213811   20.767334 H          1 MOL1         0.0832
      17    H11     19.702809   19.584046   20.844895 H          1 MOL1         0.0832
      18    C7      18.967064   20.891850   22.420648 C.3        1 MOL1        -0.1685
      19    H12     19.167705   21.936325   22.695656 H          1 MOL1         0.0832
      20    H13     18.018647   20.903044   21.866526 H          1 MOL1         0.0832
      21    O1      22.353150   19.694946   21.137961 O.3        1 MOL1        -0.5509
      22    H14     22.440959   20.520040   20.616723 H          1 MOL1         0.3779
@<TRIPOS>BOND
    1     1     2    1
    2     1     3    1
    3     1     4    1
    4     4     5    1
    5     4     6    1
    6     4     7    1
    7     7     8    1
    8     7     9    1
    9     7    10    1
   10    10    11    1
   11    10    12    1
   12    10    13    1
   13    13    14    1
   14    13    15    1
   15    15    16    1
   16    15    17    1
   17     1    18    1
   18    15    18    1
   19    18    19    1
   20    18    20    1
   21    13    21    1
   22    21    22    1
@<TRIPOS>SUBSTRUCTURE
       1 MOL1            1 RESIDUE      1      MOL     
@<SCITEGIC>MOL_PROPERTY
VConf Rank
SciTegic.value.IntegerValue
361

@<SCITEGIC>MOL_PROPERTY
Conf_Id
SciTegic.value.IntegerValue
141

@<SCITEGIC>MOL_PROPERTY
Delta U+W
SciTegic.value.DoubleValue
0.000

@<SCITEGIC>MOL_PROPERTY
U+W
SciTegic.value.DoubleValue
6.423

@<SCITEGIC>MOL_PROPERTY
Grad RMS
SciTegic.value.DoubleValue
0.000000

@<SCITEGIC>MOL_PROPERTY
U
SciTegic.value.DoubleValue
8.781

@<SCITEGIC>MOL_PROPERTY
W
SciTegic.value.DoubleValue
-2.358

@<SCITEGIC>MOL_PROPERTY
W(PB)
SciTegic.value.DoubleValue
-4.373

@<SCITEGIC>MOL_PROPERTY
W(SA)
SciTegic.value.DoubleValue
2.015

@<SCITEGIC>MOL_PROPERTY
Valence
SciTegic.value.DoubleValue
13.328

@<SCITEGIC>MOL_PROPERTY
Coulomb
SciTegic.value.DoubleValue
-8.387

@<SCITEGIC>MOL_PROPERTY
VdW
SciTegic.value.DoubleValue
3.840

@<SCITEGIC>MOL_PROPERTY
VdW6
SciTegic.value.DoubleValue
-9.744

@<SCITEGIC>MOL_PROPERTY
VdW12
SciTegic.value.DoubleValue
13.584

@<SCITEGIC>MOL_PROPERTY
Bond
SciTegic.value.DoubleValue
0.436

@<SCITEGIC>MOL_PROPERTY
Angle
SciTegic.value.DoubleValue
3.478

@<SCITEGIC>MOL_PROPERTY
Pdih
SciTegic.value.DoubleValue
9.415

@<SCITEGIC>MOL_PROPERTY
Idih
SciTegic.value.DoubleValue
0.000

@<SCITEGIC>MOL_PROPERTY
Tether
SciTegic.value.DoubleValue
0.000

@<TRIPOS>MOLECULE
guest-5_confgen4.mol2 : confsearch ligand conformer 362
          22          22           1
SMALL
USER_CHARGES
 
@<TRIPOS>ATOM
       1    C1      19.815008   19.616452   24.399355 C.3        1 MOL1        -0.1685
       2    H1      18.724250   19.621814   24.269640 H          1 MOL1         0.0832
       3    H2      19.991756   19.564103   25.482371 H          1 MOL1         0.0832
       4    C2      20.440148   20.935560   23.884758 C.3        1 MOL1        -0.1685
       5    H3      20.131686   21.752397   24.551454 H          1 MOL1         0.0832
       6    H4      21.533890   20.877745   23.969996 H          1 MOL1         0.0832
       7    C3      20.059996   21.324780   22.437580 C.3        1 MOL1        -0.1685
       8    H5      20.615788   22.233887   22.170287 H          1 MOL1         0.0832
       9    H6      18.997481   21.601746   22.401382 H          1 MOL1         0.0832
      10    C4      20.346457   20.239078   21.371572 C.3        1 MOL1        -0.1761
      11    H7      20.255939   20.711097   20.384409 H          1 MOL1         0.0832
      12    H8      21.383054   19.885925   21.447365 H          1 MOL1         0.0832
      13    C5      19.362467   19.050375   21.451414 C.3        1 MOL1         0.1218
      14    H9      18.387288   19.432687   21.785643 H          1 MOL1         0.0789
      15    C6      19.796424   17.921311   22.413803 C.3        1 MOL1        -0.1761
      16    H10     18.908830   17.314111   22.633656 H          1 MOL1         0.0832
      17    H11     20.497666   17.252673   21.896799 H          1 MOL1         0.0832
      18    C7      20.442752   18.360097   23.751626 C.3        1 MOL1        -0.1685
      19    H12     20.368168   17.520452   24.456081 H          1 MOL1         0.0832
      20    H13     21.518694   18.524623   23.603334 H          1 MOL1         0.0832
      21    O1      19.214493   18.489780   20.152547 O.3        1 MOL1        -0.5509
      22    H14     18.866824   19.201815   19.575701 H          1 MOL1         0.3779
@<TRIPOS>BOND
    1     1     2    1
    2     1     3    1
    3     1     4    1
    4     4     5    1
    5     4     6    1
    6     4     7    1
    7     7     8    1
    8     7     9    1
    9     7    10    1
   10    10    11    1
   11    10    12    1
   12    10    13    1
   13    13    14    1
   14    13    15    1
   15    15    16    1
   16    15    17    1
   17     1    18    1
   18    15    18    1
   19    18    19    1
   20    18    20    1
   21    13    21    1
   22    21    22    1
@<TRIPOS>SUBSTRUCTURE
       1 MOL1            1 RESIDUE      1      MOL     
@<SCITEGIC>MOL_PROPERTY
VConf Rank
SciTegic.value.IntegerValue
362

@<SCITEGIC>MOL_PROPERTY
Conf_Id
SciTegic.value.IntegerValue
144

@<SCITEGIC>MOL_PROPERTY
Delta U+W
SciTegic.value.DoubleValue
-3.291

@<SCITEGIC>MOL_PROPERTY
U+W
SciTegic.value.DoubleValue
3.132

@<SCITEGIC>MOL_PROPERTY
Grad RMS
SciTegic.value.DoubleValue
0.000000

@<SCITEGIC>MOL_PROPERTY
U
SciTegic.value.DoubleValue
5.411

@<SCITEGIC>MOL_PROPERTY
W
SciTegic.value.DoubleValue
-2.279

@<SCITEGIC>MOL_PROPERTY
W(PB)
SciTegic.value.DoubleValue
-4.300

@<SCITEGIC>MOL_PROPERTY
W(SA)
SciTegic.value.DoubleValue
2.021

@<SCITEGIC>MOL_PROPERTY
Valence
SciTegic.value.DoubleValue
11.909

@<SCITEGIC>MOL_PROPERTY
Coulomb
SciTegic.value.DoubleValue
-8.733

@<SCITEGIC>MOL_PROPERTY
VdW
SciTegic.value.DoubleValue
2.236

@<SCITEGIC>MOL_PROPERTY
VdW6
SciTegic.value.DoubleValue
-8.936

@<SCITEGIC>MOL_PROPERTY
VdW12
SciTegic.value.DoubleValue
11.172

@<SCITEGIC>MOL_PROPERTY
Bond
SciTegic.value.DoubleValue
0.223

@<SCITEGIC>MOL_PROPERTY
Angle
SciTegic.value.DoubleValue
2.457

@<SCITEGIC>MOL_PROPERTY
Pdih
SciTegic.value.DoubleValue
9.228

@<SCITEGIC>MOL_PROPERTY
Idih
SciTegic.value.DoubleValue
0.000

@<SCITEGIC>MOL_PROPERTY
Tether
SciTegic.value.DoubleValue
0.000

@<TRIPOS>MOLECULE
guest-5_confgen4.mol2 : confsearch ligand conformer 363
          22          22           1
SMALL
USER_CHARGES
 
@<TRIPOS>ATOM
       1    C1      18.918217   19.028421   23.951125 C.3        1 MOL1        -0.1685
       2    H1      18.066522   18.695316   24.559852 H          1 MOL1         0.0832
       3    H2      19.781201   19.064430   24.629833 H          1 MOL1         0.0832
       4    C2      18.591056   20.436192   23.400471 C.3        1 MOL1        -0.1685
       5    H3      17.965157   20.341206   22.502695 H          1 MOL1         0.0832
       6    H4      17.971373   20.969615   24.134264 H          1 MOL1         0.0832
       7    C3      19.822049   21.319703   23.084266 C.3        1 MOL1        -0.1685
       8    H5      20.158021   21.808668   24.008902 H          1 MOL1         0.0832
       9    H6      19.498747   22.131458   22.418272 H          1 MOL1         0.0832
      10    C4      21.038199   20.601179   22.449566 C.3        1 MOL1        -0.1761
      11    H7      21.675117   21.365931   21.984851 H          1 MOL1         0.0832
      12    H8      21.646086   20.150728   23.244840 H          1 MOL1         0.0832
      13    C5      20.683420   19.520575   21.403612 C.3        1 MOL1         0.1218
      14    H9      19.783021   19.824521   20.851012 H          1 MOL1         0.0789
      15    C6      20.456266   18.130927   22.040996 C.3        1 MOL1        -0.1761
      16    H10     20.462275   17.373889   21.245391 H          1 MOL1         0.0832
      17    H11     21.300978   17.886852   22.698244 H          1 MOL1         0.0832
      18    C7      19.136455   17.979817   22.834078 C.3        1 MOL1        -0.1685
      19    H12     18.287750   18.007315   22.137035 H          1 MOL1         0.0832
      20    H13     19.120286   16.978518   23.285659 H          1 MOL1         0.0832
      21    O1      21.766971   19.409844   20.490448 O.3        1 MOL1        -0.5509
      22    H14     22.546905   19.140522   21.018015 H          1 MOL1         0.3779
@<TRIPOS>BOND
    1     1     2    1
    2     1     3    1
    3     1     4    1
    4     4     5    1
    5     4     6    1
    6     4     7    1
    7     7     8    1
    8     7     9    1
    9     7    10    1
   10    10    11    1
   11    10    12    1
   12    10    13    1
   13    13    14    1
   14    13    15    1
   15    15    16    1
   16    15    17    1
   17     1    18    1
   18    15    18    1
   19    18    19    1
   20    18    20    1
   21    13    21    1
   22    21    22    1
@<TRIPOS>SUBSTRUCTURE
       1 MOL1            1 RESIDUE      1      MOL     
@<SCITEGIC>MOL_PROPERTY
VConf Rank
SciTegic.value.IntegerValue
363

@<SCITEGIC>MOL_PROPERTY
Conf_Id
SciTegic.value.IntegerValue
76

@<SCITEGIC>MOL_PROPERTY
Delta U+W
SciTegic.value.DoubleValue
-3.175

@<SCITEGIC>MOL_PROPERTY
U+W
SciTegic.value.DoubleValue
3.248

@<SCITEGIC>MOL_PROPERTY
Grad RMS
SciTegic.value.DoubleValue
0.000000

@<SCITEGIC>MOL_PROPERTY
U
SciTegic.value.DoubleValue
5.336

@<SCITEGIC>MOL_PROPERTY
W
SciTegic.value.DoubleValue
-2.088

@<SCITEGIC>MOL_PROPERTY
W(PB)
SciTegic.value.DoubleValue
-4.098

@<SCITEGIC>MOL_PROPERTY
W(SA)
SciTegic.value.DoubleValue
2.010

@<SCITEGIC>MOL_PROPERTY
Valence
SciTegic.value.DoubleValue
12.390

@<SCITEGIC>MOL_PROPERTY
Coulomb
SciTegic.value.DoubleValue
-9.270

@<SCITEGIC>MOL_PROPERTY
VdW
SciTegic.value.DoubleValue
2.216

@<SCITEGIC>MOL_PROPERTY
VdW6
SciTegic.value.DoubleValue
-8.967

@<SCITEGIC>MOL_PROPERTY
VdW12
SciTegic.value.DoubleValue
11.183

@<SCITEGIC>MOL_PROPERTY
Bond
SciTegic.value.DoubleValue
0.218

@<SCITEGIC>MOL_PROPERTY
Angle
SciTegic.value.DoubleValue
2.426

@<SCITEGIC>MOL_PROPERTY
Pdih
SciTegic.value.DoubleValue
9.745

@<SCITEGIC>MOL_PROPERTY
Idih
SciTegic.value.DoubleValue
0.000

@<SCITEGIC>MOL_PROPERTY
Tether
SciTegic.value.DoubleValue
0.000

@<TRIPOS>MOLECULE
guest-5_confgen4.mol2 : confsearch ligand conformer 364
          22          22           1
SMALL
USER_CHARGES
 
@<TRIPOS>ATOM
       1    C1      19.796290   17.975464   21.718314 C.3        1 MOL1        -0.1685
       2    H1      19.146552   17.835797   20.843606 H          1 MOL1         0.0832
       3    H2      20.317049   17.018424   21.858670 H          1 MOL1         0.0832
       4    C2      18.898704   18.243287   22.950095 C.3        1 MOL1        -0.1685
       5    H3      18.031945   18.846515   22.647896 H          1 MOL1         0.0832
       6    H4      18.485180   17.281939   23.284147 H          1 MOL1         0.0832
       7    C3      19.609817   18.925419   24.141967 C.3        1 MOL1        -0.1685
       8    H5      20.638244   18.554938   24.251128 H          1 MOL1         0.0832
       9    H6      19.083502   18.638969   25.062418 H          1 MOL1         0.0832
      10    C4      19.588317   20.472285   24.048035 C.3        1 MOL1        -0.1761
      11    H7      18.559288   20.808488   23.867540 H          1 MOL1         0.0832
      12    H8      19.866402   20.886452   25.026068 H          1 MOL1         0.0832
      13    C5      20.512572   21.104808   22.982781 C.3        1 MOL1         0.1218
      14    H9      20.245013   22.169670   22.922945 H          1 MOL1         0.0789
      15    C6      20.371289   20.518491   21.555630 C.3        1 MOL1        -0.1761
      16    H10     19.330784   20.608443   21.217790 H          1 MOL1         0.0832
      17    H11     20.958146   21.151846   20.877951 H          1 MOL1         0.0832
      18    C7      20.856708   19.054482   21.393574 C.3        1 MOL1        -0.1685
      19    H12     21.184439   18.903468   20.356168 H          1 MOL1         0.0832
      20    H13     21.750182   18.883563   22.008335 H          1 MOL1         0.0832
      21    O1      21.864994   21.011171   23.418910 O.3        1 MOL1        -0.5509
      22    H14     22.416802   21.373890   22.696258 H          1 MOL1         0.3779
@<TRIPOS>BOND
    1     1     2    1
    2     1     3    1
    3     1     4    1
    4     4     5    1
    5     4     6    1
    6     4     7    1
    7     7     8    1
    8     7     9    1
    9     7    10    1
   10    10    11    1
   11    10    12    1
   12    10    13    1
   13    13    14    1
   14    13    15    1
   15    15    16    1
   16    15    17    1
   17     1    18    1
   18    15    18    1
   19    18    19    1
   20    18    20    1
   21    13    21    1
   22    21    22    1
@<TRIPOS>SUBSTRUCTURE
       1 MOL1            1 RESIDUE      1      MOL     
@<SCITEGIC>MOL_PROPERTY
VConf Rank
SciTegic.value.IntegerValue
364

@<SCITEGIC>MOL_PROPERTY
Conf_Id
SciTegic.value.IntegerValue
95

@<SCITEGIC>MOL_PROPERTY
Delta U+W
SciTegic.value.DoubleValue
-2.289

@<SCITEGIC>MOL_PROPERTY
U+W
SciTegic.value.DoubleValue
4.134

@<SCITEGIC>MOL_PROPERTY
Grad RMS
SciTegic.value.DoubleValue
0.000000

@<SCITEGIC>MOL_PROPERTY
U
SciTegic.value.DoubleValue
6.373

@<SCITEGIC>MOL_PROPERTY
W
SciTegic.value.DoubleValue
-2.240

@<SCITEGIC>MOL_PROPERTY
W(PB)
SciTegic.value.DoubleValue
-4.254

@<SCITEGIC>MOL_PROPERTY
W(SA)
SciTegic.value.DoubleValue
2.015

@<SCITEGIC>MOL_PROPERTY
Valence
SciTegic.value.DoubleValue
12.093

@<SCITEGIC>MOL_PROPERTY
Coulomb
SciTegic.value.DoubleValue
-8.058

@<SCITEGIC>MOL_PROPERTY
VdW
SciTegic.value.DoubleValue
2.339

@<SCITEGIC>MOL_PROPERTY
VdW6
SciTegic.value.DoubleValue
-9.683

@<SCITEGIC>MOL_PROPERTY
VdW12
SciTegic.value.DoubleValue
12.022

@<SCITEGIC>MOL_PROPERTY
Bond
SciTegic.value.DoubleValue
0.268

@<SCITEGIC>MOL_PROPERTY
Angle
SciTegic.value.DoubleValue
3.005

@<SCITEGIC>MOL_PROPERTY
Pdih
SciTegic.value.DoubleValue
8.820

@<SCITEGIC>MOL_PROPERTY
Idih
SciTegic.value.DoubleValue
0.000

@<SCITEGIC>MOL_PROPERTY
Tether
SciTegic.value.DoubleValue
0.000

@<TRIPOS>MOLECULE
guest-5_confgen4.mol2 : confsearch ligand conformer 365
          22          22           1
SMALL
USER_CHARGES
 
@<TRIPOS>ATOM
       1    C1      19.251468   19.927421   20.993824 C.3        1 MOL1        -0.1685
       2    H1      19.745333   19.935306   20.012606 H          1 MOL1         0.0832
       3    H2      18.183938   20.089224   20.791368 H          1 MOL1         0.0832
       4    C2      19.791716   21.120980   21.817158 C.3        1 MOL1        -0.1685
       5    H3      20.856763   21.268231   21.592498 H          1 MOL1         0.0832
       6    H4      19.288929   22.031770   21.464360 H          1 MOL1         0.0832
       7    C3      19.599894   21.002107   23.347057 C.3        1 MOL1        -0.1685
       8    H5      18.636530   20.531916   23.587199 H          1 MOL1         0.0832
       9    H6      19.556229   22.017171   23.764385 H          1 MOL1         0.0832
      10    C4      20.768615   20.256626   24.039631 C.3        1 MOL1        -0.1761
      11    H7      21.719383   20.696316   23.711591 H          1 MOL1         0.0832
      12    H8      20.716525   20.448392   25.119211 H          1 MOL1         0.0832
      13    C5      20.828556   18.727769   23.818859 C.3        1 MOL1         0.1218
      14    H9      21.793748   18.386523   24.220176 H          1 MOL1         0.0789
      15    C6      20.766110   18.273926   22.338839 C.3        1 MOL1        -0.1761
      16    H10     21.581942   18.737932   21.769977 H          1 MOL1         0.0832
      17    H11     20.964946   17.194569   22.322028 H          1 MOL1         0.0832
      18    C7      19.410458   18.525202   21.628551 C.3        1 MOL1        -0.1685
      19    H12     19.285725   17.778630   20.832757 H          1 MOL1         0.0832
      20    H13     18.583526   18.344084   22.327837 H          1 MOL1         0.0832
      21    O1      19.790743   18.101554   24.566986 O.3        1 MOL1        -0.5509
      22    H14     19.865261   18.434166   25.484593 H          1 MOL1         0.3779
@<TRIPOS>BOND
    1     1     2    1
    2     1     3    1
    3     1     4    1
    4     4     5    1
    5     4     6    1
    6     4     7    1
    7     7     8    1
    8     7     9    1
    9     7    10    1
   10    10    11    1
   11    10    12    1
   12    10    13    1
   13    13    14    1
   14    13    15    1
   15    15    16    1
   16    15    17    1
   17     1    18    1
   18    15    18    1
   19    18    19    1
   20    18    20    1
   21    13    21    1
   22    21    22    1
@<TRIPOS>SUBSTRUCTURE
       1 MOL1            1 RESIDUE      1      MOL     
@<SCITEGIC>MOL_PROPERTY
VConf Rank
SciTegic.value.IntegerValue
365

@<SCITEGIC>MOL_PROPERTY
Conf_Id
SciTegic.value.IntegerValue
41

@<SCITEGIC>MOL_PROPERTY
Delta U+W
SciTegic.value.DoubleValue
-2.114

@<SCITEGIC>MOL_PROPERTY
U+W
SciTegic.value.DoubleValue
4.310

@<SCITEGIC>MOL_PROPERTY
Grad RMS
SciTegic.value.DoubleValue
0.000000

@<SCITEGIC>MOL_PROPERTY
U
SciTegic.value.DoubleValue
6.598

@<SCITEGIC>MOL_PROPERTY
W
SciTegic.value.DoubleValue
-2.289

@<SCITEGIC>MOL_PROPERTY
W(PB)
SciTegic.value.DoubleValue
-4.294

@<SCITEGIC>MOL_PROPERTY
W(SA)
SciTegic.value.DoubleValue
2.005

@<SCITEGIC>MOL_PROPERTY
Valence
SciTegic.value.DoubleValue
12.082

@<SCITEGIC>MOL_PROPERTY
Coulomb
SciTegic.value.DoubleValue
-7.801

@<SCITEGIC>MOL_PROPERTY
VdW
SciTegic.value.DoubleValue
2.317

@<SCITEGIC>MOL_PROPERTY
VdW6
SciTegic.value.DoubleValue
-9.658

@<SCITEGIC>MOL_PROPERTY
VdW12
SciTegic.value.DoubleValue
11.975

@<SCITEGIC>MOL_PROPERTY
Bond
SciTegic.value.DoubleValue
0.267

@<SCITEGIC>MOL_PROPERTY
Angle
SciTegic.value.DoubleValue
3.051

@<SCITEGIC>MOL_PROPERTY
Pdih
SciTegic.value.DoubleValue
8.764

@<SCITEGIC>MOL_PROPERTY
Idih
SciTegic.value.DoubleValue
0.000

@<SCITEGIC>MOL_PROPERTY
Tether
SciTegic.value.DoubleValue
0.000

@<TRIPOS>MOLECULE
guest-5_confgen4.mol2 : confsearch ligand conformer 366
          22          22           1
SMALL
USER_CHARGES
 
@<TRIPOS>ATOM
       1    C1      19.092128   20.211772   23.870747 C.3        1 MOL1        -0.1685
       2    H1      18.330754   20.776147   24.426031 H          1 MOL1         0.0832
       3    H2      19.407537   19.390394   24.528799 H          1 MOL1         0.0832
       4    C2      20.273055   21.165723   23.583040 C.3        1 MOL1        -0.1685
       5    H3      19.953784   21.942807   22.875375 H          1 MOL1         0.0832
       6    H4      20.532847   21.692254   24.511389 H          1 MOL1         0.0832
       7    C3      21.545343   20.472786   23.047931 C.3        1 MOL1        -0.1685
       8    H5      21.984111   19.852009   23.840400 H          1 MOL1         0.0832
       9    H6      22.291175   21.250899   22.837216 H          1 MOL1         0.0832
      10    C4      21.344640   19.627436   21.760963 C.3        1 MOL1        -0.1761
      11    H7      20.835603   20.224453   20.993688 H          1 MOL1         0.0832
      12    H8      22.338362   19.404399   21.351873 H          1 MOL1         0.0832
      13    C5      20.612467   18.273225   21.945538 C.3        1 MOL1         0.1218
      14    H9      20.829944   17.672641   21.050396 H          1 MOL1         0.0789
      15    C6      19.066903   18.348112   22.049293 C.3        1 MOL1        -0.1761
      16    H10     18.651167   18.166506   21.049671 H          1 MOL1         0.0832
      17    H11     18.708899   17.513342   22.666110 H          1 MOL1         0.0832
      18    C7      18.442019   19.661286   22.582205 C.3        1 MOL1        -0.1685
      19    H12     18.463096   20.429677   21.797638 H          1 MOL1         0.0832
      20    H13     17.378227   19.471009   22.779228 H          1 MOL1         0.0832
      21    O1      21.135395   17.573385   23.071456 O.3        1 MOL1        -0.5509
      22    H14     20.666432   16.715370   23.113821 H          1 MOL1         0.3779
@<TRIPOS>BOND
    1     1     2    1
    2     1     3    1
    3     1     4    1
    4     4     5    1
    5     4     6    1
    6     4     7    1
    7     7     8    1
    8     7     9    1
    9     7    10    1
   10    10    11    1
   11    10    12    1
   12    10    13    1
   13    13    14    1
   14    13    15    1
   15    15    16    1
   16    15    17    1
   17     1    18    1
   18    15    18    1
   19    18    19    1
   20    18    20    1
   21    13    21    1
   22    21    22    1
@<TRIPOS>SUBSTRUCTURE
       1 MOL1            1 RESIDUE      1      MOL     
@<SCITEGIC>MOL_PROPERTY
VConf Rank
SciTegic.value.IntegerValue
366

@<SCITEGIC>MOL_PROPERTY
Conf_Id
SciTegic.value.IntegerValue
104

@<SCITEGIC>MOL_PROPERTY
Delta U+W
SciTegic.value.DoubleValue
-1.172

@<SCITEGIC>MOL_PROPERTY
U+W
SciTegic.value.DoubleValue
5.252

@<SCITEGIC>MOL_PROPERTY
Grad RMS
SciTegic.value.DoubleValue
0.000000

@<SCITEGIC>MOL_PROPERTY
U
SciTegic.value.DoubleValue
7.482

@<SCITEGIC>MOL_PROPERTY
W
SciTegic.value.DoubleValue
-2.230

@<SCITEGIC>MOL_PROPERTY
W(PB)
SciTegic.value.DoubleValue
-4.220

@<SCITEGIC>MOL_PROPERTY
W(SA)
SciTegic.value.DoubleValue
1.990

@<SCITEGIC>MOL_PROPERTY
Valence
SciTegic.value.DoubleValue
12.309

@<SCITEGIC>MOL_PROPERTY
Coulomb
SciTegic.value.DoubleValue
-7.084

@<SCITEGIC>MOL_PROPERTY
VdW
SciTegic.value.DoubleValue
2.258

@<SCITEGIC>MOL_PROPERTY
VdW6
SciTegic.value.DoubleValue
-9.770

@<SCITEGIC>MOL_PROPERTY
VdW12
SciTegic.value.DoubleValue
12.028

@<SCITEGIC>MOL_PROPERTY
Bond
SciTegic.value.DoubleValue
0.284

@<SCITEGIC>MOL_PROPERTY
Angle
SciTegic.value.DoubleValue
3.491

@<SCITEGIC>MOL_PROPERTY
Pdih
SciTegic.value.DoubleValue
8.535

@<SCITEGIC>MOL_PROPERTY
Idih
SciTegic.value.DoubleValue
0.000

@<SCITEGIC>MOL_PROPERTY
Tether
SciTegic.value.DoubleValue
0.000

@<TRIPOS>MOLECULE
guest-5_confgen4.mol2 : confsearch ligand conformer 367
          22          22           1
SMALL
USER_CHARGES
 
@<TRIPOS>ATOM
       1    C1      18.825659   18.507574   22.588881 C.3        1 MOL1        -0.1685
       2    H1      18.056041   19.288119   22.659030 H          1 MOL1         0.0832
       3    H2      18.284207   17.552907   22.540086 H          1 MOL1         0.0832
       4    C2      19.707883   18.486358   23.858021 C.3        1 MOL1        -0.1685
       5    H3      19.165333   17.956354   24.652995 H          1 MOL1         0.0832
       6    H4      20.601585   17.877183   23.669501 H          1 MOL1         0.0832
       7    C3      20.120460   19.873526   24.412294 C.3        1 MOL1        -0.1685
       8    H5      21.053173   19.757266   24.981368 H          1 MOL1         0.0832
       9    H6      19.368631   20.191444   25.147556 H          1 MOL1         0.0832
      10    C4      20.289515   21.027724   23.387379 C.3        1 MOL1        -0.1761
      11    H7      19.298874   21.416224   23.117836 H          1 MOL1         0.0832
      12    H8      20.796434   21.859188   23.894036 H          1 MOL1         0.0832
      13    C5      21.067774   20.709482   22.090068 C.3        1 MOL1         0.1218
      14    H9      21.435033   21.664049   21.686579 H          1 MOL1         0.0789
      15    C6      20.178465   20.075044   20.996959 C.3        1 MOL1        -0.1761
      16    H10     19.328790   20.742696   20.803684 H          1 MOL1         0.0832
      17    H11     20.752428   20.048933   20.061476 H          1 MOL1         0.0832
      18    C7      19.642341   18.650320   21.282484 C.3        1 MOL1        -0.1685
      19    H12     19.000142   18.357732   20.440650 H          1 MOL1         0.0832
      20    H13     20.473795   17.932572   21.282479 H          1 MOL1         0.0832
      21    O1      22.176906   19.868639   22.367515 O.3        1 MOL1        -0.5509
      22    H14     21.780243   19.084189   22.795981 H          1 MOL1         0.3779
@<TRIPOS>BOND
    1     1     2    1
    2     1     3    1
    3     1     4    1
    4     4     5    1
    5     4     6    1
    6     4     7    1
    7     7     8    1
    8     7     9    1
    9     7    10    1
   10    10    11    1
   11    10    12    1
   12    10    13    1
   13    13    14    1
   14    13    15    1
   15    15    16    1
   16    15    17    1
   17     1    18    1
   18    15    18    1
   19    18    19    1
   20    18    20    1
   21    13    21    1
   22    21    22    1
@<TRIPOS>SUBSTRUCTURE
       1 MOL1            1 RESIDUE      1      MOL     
@<SCITEGIC>MOL_PROPERTY
VConf Rank
SciTegic.value.IntegerValue
367

@<SCITEGIC>MOL_PROPERTY
Conf_Id
SciTegic.value.IntegerValue
99

@<SCITEGIC>MOL_PROPERTY
Delta U+W
SciTegic.value.DoubleValue
-3.852

@<SCITEGIC>MOL_PROPERTY
U+W
SciTegic.value.DoubleValue
2.572

@<SCITEGIC>MOL_PROPERTY
Grad RMS
SciTegic.value.DoubleValue
0.000000

@<SCITEGIC>MOL_PROPERTY
U
SciTegic.value.DoubleValue
3.922

@<SCITEGIC>MOL_PROPERTY
W
SciTegic.value.DoubleValue
-1.350

@<SCITEGIC>MOL_PROPERTY
W(PB)
SciTegic.value.DoubleValue
-3.345

@<SCITEGIC>MOL_PROPERTY
W(SA)
SciTegic.value.DoubleValue
1.995

@<SCITEGIC>MOL_PROPERTY
Valence
SciTegic.value.DoubleValue
12.571

@<SCITEGIC>MOL_PROPERTY
Coulomb
SciTegic.value.DoubleValue
-10.581

@<SCITEGIC>MOL_PROPERTY
VdW
SciTegic.value.DoubleValue
1.932

@<SCITEGIC>MOL_PROPERTY
VdW6
SciTegic.value.DoubleValue
-10.483

@<SCITEGIC>MOL_PROPERTY
VdW12
SciTegic.value.DoubleValue
12.415

@<SCITEGIC>MOL_PROPERTY
Bond
SciTegic.value.DoubleValue
0.268

@<SCITEGIC>MOL_PROPERTY
Angle
SciTegic.value.DoubleValue
3.728

@<SCITEGIC>MOL_PROPERTY
Pdih
SciTegic.value.DoubleValue
8.575

@<SCITEGIC>MOL_PROPERTY
Idih
SciTegic.value.DoubleValue
0.000

@<SCITEGIC>MOL_PROPERTY
Tether
SciTegic.value.DoubleValue
0.000

@<TRIPOS>MOLECULE
guest-5_confgen4.mol2 : confsearch ligand conformer 368
          22          22           1
SMALL
USER_CHARGES
 
@<TRIPOS>ATOM
       1    C1      19.691724   19.733036   24.293543 C.3        1 MOL1        -0.1685
       2    H1      19.950358   19.667897   25.359449 H          1 MOL1         0.0832
       3    H2      18.650851   20.082779   24.275687 H          1 MOL1         0.0832
       4    C2      19.786777   18.300714   23.690826 C.3        1 MOL1        -0.1685
       5    H3      20.086393   17.615597   24.495895 H          1 MOL1         0.0832
       6    H4      18.792137   17.954249   23.379847 H          1 MOL1         0.0832
       7    C3      20.787964   18.121325   22.521128 C.3        1 MOL1        -0.1685
       8    H5      20.900463   17.046672   22.323160 H          1 MOL1         0.0832
       9    H6      21.786607   18.449802   22.834791 H          1 MOL1         0.0832
      10    C4      20.404178   18.813303   21.183703 C.3        1 MOL1        -0.1761
      11    H7      21.319816   18.953048   20.594789 H          1 MOL1         0.0832
      12    H8      19.786301   18.118936   20.598829 H          1 MOL1         0.0832
      13    C5      19.652115   20.165467   21.248596 C.3        1 MOL1         0.1218
      14    H9      19.675997   20.593116   20.236015 H          1 MOL1         0.0789
      15    C6      20.243190   21.233168   22.201901 C.3        1 MOL1        -0.1761
      16    H10     21.139670   21.659099   21.733235 H          1 MOL1         0.0832
      17    H11     19.523931   22.061138   22.257825 H          1 MOL1         0.0832
      18    C7      20.609844   20.803057   23.649440 C.3        1 MOL1        -0.1685
      19    H12     21.652803   20.464332   23.682162 H          1 MOL1         0.0832
      20    H13     20.591432   21.701239   24.281623 H          1 MOL1         0.0832
      21    O1      18.290189   19.937584   21.574892 O.3        1 MOL1        -0.5509
      22    H14     18.323131   19.560344   22.476855 H          1 MOL1         0.3779
@<TRIPOS>BOND
    1     1     2    1
    2     1     3    1
    3     1     4    1
    4     4     5    1
    5     4     6    1
    6     4     7    1
    7     7     8    1
    8     7     9    1
    9     7    10    1
   10    10    11    1
   11    10    12    1
   12    10    13    1
   13    13    14    1
   14    13    15    1
   15    15    16    1
   16    15    17    1
   17     1    18    1
   18    15    18    1
   19    18    19    1
   20    18    20    1
   21    13    21    1
   22    21    22    1
@<TRIPOS>SUBSTRUCTURE
       1 MOL1            1 RESIDUE      1      MOL     
@<SCITEGIC>MOL_PROPERTY
VConf Rank
SciTegic.value.IntegerValue
368

@<SCITEGIC>MOL_PROPERTY
Conf_Id
SciTegic.value.IntegerValue
98

@<SCITEGIC>MOL_PROPERTY
Delta U+W
SciTegic.value.DoubleValue
0.930

@<SCITEGIC>MOL_PROPERTY
U+W
SciTegic.value.DoubleValue
7.353

@<SCITEGIC>MOL_PROPERTY
Grad RMS
SciTegic.value.DoubleValue
0.000000

@<SCITEGIC>MOL_PROPERTY
U
SciTegic.value.DoubleValue
8.455

@<SCITEGIC>MOL_PROPERTY
W
SciTegic.value.DoubleValue
-1.102

@<SCITEGIC>MOL_PROPERTY
W(PB)
SciTegic.value.DoubleValue
-3.101

@<SCITEGIC>MOL_PROPERTY
W(SA)
SciTegic.value.DoubleValue
2.000

@<SCITEGIC>MOL_PROPERTY
Valence
SciTegic.value.DoubleValue
15.601

@<SCITEGIC>MOL_PROPERTY
Coulomb
SciTegic.value.DoubleValue
-10.573

@<SCITEGIC>MOL_PROPERTY
VdW
SciTegic.value.DoubleValue
3.427

@<SCITEGIC>MOL_PROPERTY
VdW6
SciTegic.value.DoubleValue
-11.360

@<SCITEGIC>MOL_PROPERTY
VdW12
SciTegic.value.DoubleValue
14.787

@<SCITEGIC>MOL_PROPERTY
Bond
SciTegic.value.DoubleValue
0.471

@<SCITEGIC>MOL_PROPERTY
Angle
SciTegic.value.DoubleValue
5.445

@<SCITEGIC>MOL_PROPERTY
Pdih
SciTegic.value.DoubleValue
9.685

@<SCITEGIC>MOL_PROPERTY
Idih
SciTegic.value.DoubleValue
0.000

@<SCITEGIC>MOL_PROPERTY
Tether
SciTegic.value.DoubleValue
0.000

@<TRIPOS>MOLECULE
guest-5_confgen4.mol2 : confsearch ligand conformer 369
          22          22           1
SMALL
USER_CHARGES
 
@<TRIPOS>ATOM
       1    C1      19.853143   19.010756   24.284218 C.3        1 MOL1        -0.1685
       2    H1      20.629144   18.265310   24.067621 H          1 MOL1         0.0832
       3    H2      19.625455   18.883504   25.351307 H          1 MOL1         0.0832
       4    C2      18.576387   18.690886   23.465843 C.3        1 MOL1        -0.1685
       5    H3      18.246040   17.682228   23.749312 H          1 MOL1         0.0832
       6    H4      17.765401   19.366118   23.770779 H          1 MOL1         0.0832
       7    C3      18.723078   18.734791   21.919493 C.3        1 MOL1        -0.1685
       8    H5      18.282325   19.659840   21.525748 H          1 MOL1         0.0832
       9    H6      18.111766   17.927173   21.494423 H          1 MOL1         0.0832
      10    C4      20.175316   18.588793   21.392806 C.3        1 MOL1        -0.1761
      11    H7      20.632266   17.697076   21.839646 H          1 MOL1         0.0832
      12    H8      20.131894   18.373718   20.316588 H          1 MOL1         0.0832
      13    C5      21.109200   19.812667   21.624888 C.3        1 MOL1         0.1218
      14    H9      22.068695   19.438456   22.010120 H          1 MOL1         0.0789
      15    C6      20.582121   20.890143   22.605444 C.3        1 MOL1        -0.1761
      16    H10     21.265291   21.749274   22.590263 H          1 MOL1         0.0832
      17    H11     19.623796   21.281499   22.243445 H          1 MOL1         0.0832
      18    C7      20.429522   20.431157   24.077128 C.3        1 MOL1        -0.1685
      19    H12     21.411730   20.476014   24.567096 H          1 MOL1         0.0832
      20    H13     19.796276   21.157458   24.604535 H          1 MOL1         0.0832
      21    O1      21.336237   20.450064   20.372947 O.3        1 MOL1        -0.5509
      22    H14     21.970170   21.178878   20.537686 H          1 MOL1         0.3779
@<TRIPOS>BOND
    1     1     2    1
    2     1     3    1
    3     1     4    1
    4     4     5    1
    5     4     6    1
    6     4     7    1
    7     7     8    1
    8     7     9    1
    9     7    10    1
   10    10    11    1
   11    10    12    1
   12    10    13    1
   13    13    14    1
   14    13    15    1
   15    15    16    1
   16    15    17    1
   17     1    18    1
   18    15    18    1
   19    18    19    1
   20    18    20    1
   21    13    21    1
   22    21    22    1
@<TRIPOS>SUBSTRUCTURE
       1 MOL1            1 RESIDUE      1      MOL     
@<SCITEGIC>MOL_PROPERTY
VConf Rank
SciTegic.value.IntegerValue
369

@<SCITEGIC>MOL_PROPERTY
Conf_Id
SciTegic.value.IntegerValue
141

@<SCITEGIC>MOL_PROPERTY
Delta U+W
SciTegic.value.DoubleValue
0.000

@<SCITEGIC>MOL_PROPERTY
U+W
SciTegic.value.DoubleValue
6.423

@<SCITEGIC>MOL_PROPERTY
Grad RMS
SciTegic.value.DoubleValue
0.000000

@<SCITEGIC>MOL_PROPERTY
U
SciTegic.value.DoubleValue
8.781

@<SCITEGIC>MOL_PROPERTY
W
SciTegic.value.DoubleValue
-2.358

@<SCITEGIC>MOL_PROPERTY
W(PB)
SciTegic.value.DoubleValue
-4.373

@<SCITEGIC>MOL_PROPERTY
W(SA)
SciTegic.value.DoubleValue
2.015

@<SCITEGIC>MOL_PROPERTY
Valence
SciTegic.value.DoubleValue
13.328

@<SCITEGIC>MOL_PROPERTY
Coulomb
SciTegic.value.DoubleValue
-8.387

@<SCITEGIC>MOL_PROPERTY
VdW
SciTegic.value.DoubleValue
3.840

@<SCITEGIC>MOL_PROPERTY
VdW6
SciTegic.value.DoubleValue
-9.744

@<SCITEGIC>MOL_PROPERTY
VdW12
SciTegic.value.DoubleValue
13.584

@<SCITEGIC>MOL_PROPERTY
Bond
SciTegic.value.DoubleValue
0.436

@<SCITEGIC>MOL_PROPERTY
Angle
SciTegic.value.DoubleValue
3.478

@<SCITEGIC>MOL_PROPERTY
Pdih
SciTegic.value.DoubleValue
9.415

@<SCITEGIC>MOL_PROPERTY
Idih
SciTegic.value.DoubleValue
0.000

@<SCITEGIC>MOL_PROPERTY
Tether
SciTegic.value.DoubleValue
0.000

@<TRIPOS>MOLECULE
guest-5_confgen4.mol2 : confsearch ligand conformer 370
          22          22           1
SMALL
USER_CHARGES
 
@<TRIPOS>ATOM
       1    C1      20.838645   19.688000   24.182872 C.3        1 MOL1        -0.1685
       2    H1      19.922047   19.352485   24.686743 H          1 MOL1         0.0832
       3    H2      21.603983   19.768706   24.966867 H          1 MOL1         0.0832
       4    C2      20.648048   21.094743   23.566105 C.3        1 MOL1        -0.1685
       5    H3      20.551878   21.824323   24.381776 H          1 MOL1         0.0832
       6    H4      21.556897   21.378178   23.017894 H          1 MOL1         0.0832
       7    C3      19.422021   21.246485   22.636502 C.3        1 MOL1        -0.1685
       8    H5      19.436583   22.260147   22.213293 H          1 MOL1         0.0832
       9    H6      18.501723   21.184225   23.233272 H          1 MOL1         0.0832
      10    C4      19.352591   20.226482   21.473767 C.3        1 MOL1        -0.1761
      11    H7      18.586824   20.577488   20.769580 H          1 MOL1         0.0832
      12    H8      20.297354   20.211288   20.915028 H          1 MOL1         0.0832
      13    C5      18.982229   18.803794   21.949602 C.3        1 MOL1         0.1218
      14    H9      18.308823   18.894405   22.813984 H          1 MOL1         0.0789
      15    C6      20.188809   17.931135   22.364244 C.3        1 MOL1        -0.1761
      16    H10     19.804119   17.100134   22.969473 H          1 MOL1         0.0832
      17    H11     20.630026   17.472306   21.469306 H          1 MOL1         0.0832
      18    C7      21.318915   18.639195   23.152632 C.3        1 MOL1        -0.1685
      19    H12     21.903314   17.868716   23.673847 H          1 MOL1         0.0832
      20    H13     22.017412   19.111916   22.448824 H          1 MOL1         0.0832
      21    O1      18.293890   18.134187   20.900301 O.3        1 MOL1        -0.5509
      22    H14     17.492929   18.664170   20.704860 H          1 MOL1         0.3779
@<TRIPOS>BOND
    1     1     2    1
    2     1     3    1
    3     1     4    1
    4     4     5    1
    5     4     6    1
    6     4     7    1
    7     7     8    1
    8     7     9    1
    9     7    10    1
   10    10    11    1
   11    10    12    1
   12    10    13    1
   13    13    14    1
   14    13    15    1
   15    15    16    1
   16    15    17    1
   17     1    18    1
   18    15    18    1
   19    18    19    1
   20    18    20    1
   21    13    21    1
   22    21    22    1
@<TRIPOS>SUBSTRUCTURE
       1 MOL1            1 RESIDUE      1      MOL     
@<SCITEGIC>MOL_PROPERTY
VConf Rank
SciTegic.value.IntegerValue
370

@<SCITEGIC>MOL_PROPERTY
Conf_Id
SciTegic.value.IntegerValue
144

@<SCITEGIC>MOL_PROPERTY
Delta U+W
SciTegic.value.DoubleValue
-3.291

@<SCITEGIC>MOL_PROPERTY
U+W
SciTegic.value.DoubleValue
3.132

@<SCITEGIC>MOL_PROPERTY
Grad RMS
SciTegic.value.DoubleValue
0.000000

@<SCITEGIC>MOL_PROPERTY
U
SciTegic.value.DoubleValue
5.411

@<SCITEGIC>MOL_PROPERTY
W
SciTegic.value.DoubleValue
-2.279

@<SCITEGIC>MOL_PROPERTY
W(PB)
SciTegic.value.DoubleValue
-4.300

@<SCITEGIC>MOL_PROPERTY
W(SA)
SciTegic.value.DoubleValue
2.021

@<SCITEGIC>MOL_PROPERTY
Valence
SciTegic.value.DoubleValue
11.909

@<SCITEGIC>MOL_PROPERTY
Coulomb
SciTegic.value.DoubleValue
-8.733

@<SCITEGIC>MOL_PROPERTY
VdW
SciTegic.value.DoubleValue
2.236

@<SCITEGIC>MOL_PROPERTY
VdW6
SciTegic.value.DoubleValue
-8.936

@<SCITEGIC>MOL_PROPERTY
VdW12
SciTegic.value.DoubleValue
11.172

@<SCITEGIC>MOL_PROPERTY
Bond
SciTegic.value.DoubleValue
0.223

@<SCITEGIC>MOL_PROPERTY
Angle
SciTegic.value.DoubleValue
2.457

@<SCITEGIC>MOL_PROPERTY
Pdih
SciTegic.value.DoubleValue
9.228

@<SCITEGIC>MOL_PROPERTY
Idih
SciTegic.value.DoubleValue
0.000

@<SCITEGIC>MOL_PROPERTY
Tether
SciTegic.value.DoubleValue
0.000

@<TRIPOS>MOLECULE
guest-5_confgen4.mol2 : confsearch ligand conformer 371
          22          22           1
SMALL
USER_CHARGES
 
@<TRIPOS>ATOM
       1    C1      20.585905   19.151589   21.096240 C.3        1 MOL1        -0.1685
       2    H1      20.980264   18.622582   20.217876 H          1 MOL1         0.0832
       3    H2      20.568784   20.216504   20.827270 H          1 MOL1         0.0832
       4    C2      21.548621   18.897519   22.279751 C.3        1 MOL1        -0.1685
       5    H3      21.315503   17.927103   22.738798 H          1 MOL1         0.0832
       6    H4      22.571481   18.799312   21.891020 H          1 MOL1         0.0832
       7    C3      21.555976   19.998381   23.367855 C.3        1 MOL1        -0.1685
       8    H5      22.228758   20.807743   23.052874 H          1 MOL1         0.0832
       9    H6      22.002980   19.576564   24.278501 H          1 MOL1         0.0832
      10    C4      20.183849   20.622613   23.722456 C.3        1 MOL1        -0.1761
      11    H7      20.281825   21.116564   24.698613 H          1 MOL1         0.0832
      12    H8      19.955626   21.422200   23.005888 H          1 MOL1         0.0832
      13    C5      19.005528   19.623981   23.765928 C.3        1 MOL1         0.1218
      14    H9      19.360403   18.651595   24.136061 H          1 MOL1         0.0789
      15    C6      18.333660   19.439850   22.386194 C.3        1 MOL1        -0.1761
      16    H10     17.370092   18.932668   22.529144 H          1 MOL1         0.0832
      17    H11     18.098271   20.423383   21.959180 H          1 MOL1         0.0832
      18    C7      19.154834   18.624482   21.359275 C.3        1 MOL1        -0.1685
      19    H12     19.206124   17.576272   21.684162 H          1 MOL1         0.0832
      20    H13     18.604354   18.616375   20.408647 H          1 MOL1         0.0832
      21    O1      18.026040   20.127516   24.664409 O.3        1 MOL1        -0.5509
      22    H14     17.737196   20.990833   24.303283 H          1 MOL1         0.3779
@<TRIPOS>BOND
    1     1     2    1
    2     1     3    1
    3     1     4    1
    4     4     5    1
    5     4     6    1
    6     4     7    1
    7     7     8    1
    8     7     9    1
    9     7    10    1
   10    10    11    1
   11    10    12    1
   12    10    13    1
   13    13    14    1
   14    13    15    1
   15    15    16    1
   16    15    17    1
   17     1    18    1
   18    15    18    1
   19    18    19    1
   20    18    20    1
   21    13    21    1
   22    21    22    1
@<TRIPOS>SUBSTRUCTURE
       1 MOL1            1 RESIDUE      1      MOL     
@<SCITEGIC>MOL_PROPERTY
VConf Rank
SciTegic.value.IntegerValue
371

@<SCITEGIC>MOL_PROPERTY
Conf_Id
SciTegic.value.IntegerValue
76

@<SCITEGIC>MOL_PROPERTY
Delta U+W
SciTegic.value.DoubleValue
-3.175

@<SCITEGIC>MOL_PROPERTY
U+W
SciTegic.value.DoubleValue
3.248

@<SCITEGIC>MOL_PROPERTY
Grad RMS
SciTegic.value.DoubleValue
0.000000

@<SCITEGIC>MOL_PROPERTY
U
SciTegic.value.DoubleValue
5.336

@<SCITEGIC>MOL_PROPERTY
W
SciTegic.value.DoubleValue
-2.088

@<SCITEGIC>MOL_PROPERTY
W(PB)
SciTegic.value.DoubleValue
-4.098

@<SCITEGIC>MOL_PROPERTY
W(SA)
SciTegic.value.DoubleValue
2.010

@<SCITEGIC>MOL_PROPERTY
Valence
SciTegic.value.DoubleValue
12.390

@<SCITEGIC>MOL_PROPERTY
Coulomb
SciTegic.value.DoubleValue
-9.270

@<SCITEGIC>MOL_PROPERTY
VdW
SciTegic.value.DoubleValue
2.216

@<SCITEGIC>MOL_PROPERTY
VdW6
SciTegic.value.DoubleValue
-8.967

@<SCITEGIC>MOL_PROPERTY
VdW12
SciTegic.value.DoubleValue
11.183

@<SCITEGIC>MOL_PROPERTY
Bond
SciTegic.value.DoubleValue
0.218

@<SCITEGIC>MOL_PROPERTY
Angle
SciTegic.value.DoubleValue
2.426

@<SCITEGIC>MOL_PROPERTY
Pdih
SciTegic.value.DoubleValue
9.745

@<SCITEGIC>MOL_PROPERTY
Idih
SciTegic.value.DoubleValue
0.000

@<SCITEGIC>MOL_PROPERTY
Tether
SciTegic.value.DoubleValue
0.000

@<TRIPOS>MOLECULE
guest-5_confgen4.mol2 : confsearch ligand conformer 372
          22          22           1
SMALL
USER_CHARGES
 
@<TRIPOS>ATOM
       1    C1      19.814849   19.687671   20.834124 C.3        1 MOL1        -0.1685
       2    H1      19.204753   20.426902   20.297373 H          1 MOL1         0.0832
       3    H2      20.311697   19.090663   20.057247 H          1 MOL1         0.0832
       4    C2      18.864966   18.770198   21.640748 C.3        1 MOL1        -0.1685
       5    H3      18.024038   19.361987   22.026890 H          1 MOL1         0.0832
       6    H4      18.419502   18.046735   20.944366 H          1 MOL1         0.0832
       7    C3      19.530831   18.001408   22.805706 C.3        1 MOL1        -0.1685
       8    H5      20.546371   17.680716   22.536133 H          1 MOL1         0.0832
       9    H6      18.956796   17.081278   22.979306 H          1 MOL1         0.0832
      10    C4      19.540675   18.808163   24.129009 C.3        1 MOL1        -0.1761
      11    H7      18.527301   19.175836   24.334927 H          1 MOL1         0.0832
      12    H8      19.779485   18.124496   24.954226 H          1 MOL1         0.0832
      13    C5      20.524990   19.997993   24.196286 C.3        1 MOL1         0.1218
      14    H9      20.279099   20.561691   25.107812 H          1 MOL1         0.0789
      15    C6      20.440995   20.990854   23.009839 C.3        1 MOL1        -0.1761
      16    H10     19.419300   21.382931   22.924443 H          1 MOL1         0.0832
      17    H11     21.070076   21.855758   23.256794 H          1 MOL1         0.0832
      18    C7      20.907996   20.425673   21.643201 C.3        1 MOL1        -0.1685
      19    H12     21.281609   21.254530   21.026896 H          1 MOL1         0.0832
      20    H13     21.768380   19.758643   21.785509 H          1 MOL1         0.0832
      21    O1      21.853508   19.501894   24.326464 O.3        1 MOL1        -0.5509
      22    H14     22.445002   20.281788   24.312928 H          1 MOL1         0.3779
@<TRIPOS>BOND
    1     1     2    1
    2     1     3    1
    3     1     4    1
    4     4     5    1
    5     4     6    1
    6     4     7    1
    7     7     8    1
    8     7     9    1
    9     7    10    1
   10    10    11    1
   11    10    12    1
   12    10    13    1
   13    13    14    1
   14    13    15    1
   15    15    16    1
   16    15    17    1
   17     1    18    1
   18    15    18    1
   19    18    19    1
   20    18    20    1
   21    13    21    1
   22    21    22    1
@<TRIPOS>SUBSTRUCTURE
       1 MOL1            1 RESIDUE      1      MOL     
@<SCITEGIC>MOL_PROPERTY
VConf Rank
SciTegic.value.IntegerValue
372

@<SCITEGIC>MOL_PROPERTY
Conf_Id
SciTegic.value.IntegerValue
95

@<SCITEGIC>MOL_PROPERTY
Delta U+W
SciTegic.value.DoubleValue
-2.289

@<SCITEGIC>MOL_PROPERTY
U+W
SciTegic.value.DoubleValue
4.134

@<SCITEGIC>MOL_PROPERTY
Grad RMS
SciTegic.value.DoubleValue
0.000000

@<SCITEGIC>MOL_PROPERTY
U
SciTegic.value.DoubleValue
6.373

@<SCITEGIC>MOL_PROPERTY
W
SciTegic.value.DoubleValue
-2.240

@<SCITEGIC>MOL_PROPERTY
W(PB)
SciTegic.value.DoubleValue
-4.254

@<SCITEGIC>MOL_PROPERTY
W(SA)
SciTegic.value.DoubleValue
2.015

@<SCITEGIC>MOL_PROPERTY
Valence
SciTegic.value.DoubleValue
12.093

@<SCITEGIC>MOL_PROPERTY
Coulomb
SciTegic.value.DoubleValue
-8.058

@<SCITEGIC>MOL_PROPERTY
VdW
SciTegic.value.DoubleValue
2.339

@<SCITEGIC>MOL_PROPERTY
VdW6
SciTegic.value.DoubleValue
-9.683

@<SCITEGIC>MOL_PROPERTY
VdW12
SciTegic.value.DoubleValue
12.022

@<SCITEGIC>MOL_PROPERTY
Bond
SciTegic.value.DoubleValue
0.268

@<SCITEGIC>MOL_PROPERTY
Angle
SciTegic.value.DoubleValue
3.005

@<SCITEGIC>MOL_PROPERTY
Pdih
SciTegic.value.DoubleValue
8.820

@<SCITEGIC>MOL_PROPERTY
Idih
SciTegic.value.DoubleValue
0.000

@<SCITEGIC>MOL_PROPERTY
Tether
SciTegic.value.DoubleValue
0.000

@<TRIPOS>MOLECULE
guest-5_confgen4.mol2 : confsearch ligand conformer 373
          22          22           1
SMALL
USER_CHARGES
 
@<TRIPOS>ATOM
       1    C1      21.603229   19.930099   23.771689 C.3        1 MOL1        -0.1685
       2    H1      21.987495   19.314528   24.596411 H          1 MOL1         0.0832
       3    H2      22.325337   20.748896   23.649539 H          1 MOL1         0.0832
       4    C2      20.241378   20.523633   24.204596 C.3        1 MOL1        -0.1685
       5    H3      19.699409   19.788737   24.815069 H          1 MOL1         0.0832
       6    H4      20.438463   21.372367   24.873630 H          1 MOL1         0.0832
       7    C3      19.334992   20.998313   23.045001 C.3        1 MOL1        -0.1685
       8    H5      19.929752   21.457998   22.243895 H          1 MOL1         0.0832
       9    H6      18.677474   21.789830   23.429185 H          1 MOL1         0.0832
      10    C4      18.435475   19.866175   22.487829 C.3        1 MOL1        -0.1761
      11    H7      17.921458   19.372441   23.322640 H          1 MOL1         0.0832
      12    H8      17.639106   20.316925   21.881525 H          1 MOL1         0.0832
      13    C5      19.144655   18.788080   21.636648 C.3        1 MOL1         0.1218
      14    H9      18.414795   17.982198   21.472456 H          1 MOL1         0.0789
      15    C6      20.390921   18.144881   22.295018 C.3        1 MOL1        -0.1761
      16    H10     20.116928   17.699126   23.259756 H          1 MOL1         0.0832
      17    H11     20.700203   17.308304   21.655242 H          1 MOL1         0.0832
      18    C7      21.606562   19.091806   22.471064 C.3        1 MOL1        -0.1685
      19    H12     22.525933   18.491110   22.459309 H          1 MOL1         0.0832
      20    H13     21.686811   19.761180   21.604393 H          1 MOL1         0.0832
      21    O1      19.490012   19.338776   20.369227 O.3        1 MOL1        -0.5509
      22    H14     18.675946   19.744414   20.007371 H          1 MOL1         0.3779
@<TRIPOS>BOND
    1     1     2    1
    2     1     3    1
    3     1     4    1
    4     4     5    1
    5     4     6    1
    6     4     7    1
    7     7     8    1
    8     7     9    1
    9     7    10    1
   10    10    11    1
   11    10    12    1
   12    10    13    1
   13    13    14    1
   14    13    15    1
   15    15    16    1
   16    15    17    1
   17     1    18    1
   18    15    18    1
   19    18    19    1
   20    18    20    1
   21    13    21    1
   22    21    22    1
@<TRIPOS>SUBSTRUCTURE
       1 MOL1            1 RESIDUE      1      MOL     
@<SCITEGIC>MOL_PROPERTY
VConf Rank
SciTegic.value.IntegerValue
373

@<SCITEGIC>MOL_PROPERTY
Conf_Id
SciTegic.value.IntegerValue
41

@<SCITEGIC>MOL_PROPERTY
Delta U+W
SciTegic.value.DoubleValue
-2.114

@<SCITEGIC>MOL_PROPERTY
U+W
SciTegic.value.DoubleValue
4.310

@<SCITEGIC>MOL_PROPERTY
Grad RMS
SciTegic.value.DoubleValue
0.000000

@<SCITEGIC>MOL_PROPERTY
U
SciTegic.value.DoubleValue
6.598

@<SCITEGIC>MOL_PROPERTY
W
SciTegic.value.DoubleValue
-2.289

@<SCITEGIC>MOL_PROPERTY
W(PB)
SciTegic.value.DoubleValue
-4.294

@<SCITEGIC>MOL_PROPERTY
W(SA)
SciTegic.value.DoubleValue
2.005

@<SCITEGIC>MOL_PROPERTY
Valence
SciTegic.value.DoubleValue
12.082

@<SCITEGIC>MOL_PROPERTY
Coulomb
SciTegic.value.DoubleValue
-7.801

@<SCITEGIC>MOL_PROPERTY
VdW
SciTegic.value.DoubleValue
2.317

@<SCITEGIC>MOL_PROPERTY
VdW6
SciTegic.value.DoubleValue
-9.658

@<SCITEGIC>MOL_PROPERTY
VdW12
SciTegic.value.DoubleValue
11.975

@<SCITEGIC>MOL_PROPERTY
Bond
SciTegic.value.DoubleValue
0.267

@<SCITEGIC>MOL_PROPERTY
Angle
SciTegic.value.DoubleValue
3.051

@<SCITEGIC>MOL_PROPERTY
Pdih
SciTegic.value.DoubleValue
8.764

@<SCITEGIC>MOL_PROPERTY
Idih
SciTegic.value.DoubleValue
0.000

@<SCITEGIC>MOL_PROPERTY
Tether
SciTegic.value.DoubleValue
0.000

@<TRIPOS>MOLECULE
guest-5_confgen4.mol2 : confsearch ligand conformer 374
          22          22           1
SMALL
USER_CHARGES
 
@<TRIPOS>ATOM
       1    C1      20.605158   21.033966   23.233416 C.3        1 MOL1        -0.1685
       2    H1      20.924948   22.081100   23.321707 H          1 MOL1         0.0832
       3    H2      20.307345   20.716773   24.242313 H          1 MOL1         0.0832
       4    C2      21.813699   20.209761   22.735922 C.3        1 MOL1        -0.1685
       5    H3      22.055777   20.498530   21.704132 H          1 MOL1         0.0832
       6    H4      22.692666   20.477771   23.337709 H          1 MOL1         0.0832
       7    C3      21.624448   18.678854   22.811620 C.3        1 MOL1        -0.1685
       8    H5      21.594281   18.365978   23.863803 H          1 MOL1         0.0832
       9    H6      22.521408   18.205828   22.389915 H          1 MOL1         0.0832
      10    C4      20.382683   18.129439   22.058395 C.3        1 MOL1        -0.1761
      11    H7      20.370881   18.504999   21.027340 H          1 MOL1         0.0832
      12    H8      20.498951   17.041195   21.975995 H          1 MOL1         0.0832
      13    C5      19.010096   18.392365   22.729890 C.3        1 MOL1         0.1218
      14    H9      18.295947   17.692547   22.272153 H          1 MOL1         0.0789
      15    C6      18.416418   19.810203   22.523926 C.3        1 MOL1        -0.1761
      16    H10     17.725076   19.767455   21.672291 H          1 MOL1         0.0832
      17    H11     17.791388   20.065562   23.389721 H          1 MOL1         0.0832
      18    C7      19.403402   20.975353   22.264723 C.3        1 MOL1        -0.1685
      19    H12     19.763345   20.935630   21.227767 H          1 MOL1         0.0832
      20    H13     18.841242   21.915655   22.345256 H          1 MOL1         0.0832
      21    O1      19.071616   18.095807   24.122437 O.3        1 MOL1        -0.5509
      22    H14     18.173111   18.240861   24.482376 H          1 MOL1         0.3779
@<TRIPOS>BOND
    1     1     2    1
    2     1     3    1
    3     1     4    1
    4     4     5    1
    5     4     6    1
    6     4     7    1
    7     7     8    1
    8     7     9    1
    9     7    10    1
   10    10    11    1
   11    10    12    1
   12    10    13    1
   13    13    14    1
   14    13    15    1
   15    15    16    1
   16    15    17    1
   17     1    18    1
   18    15    18    1
   19    18    19    1
   20    18    20    1
   21    13    21    1
   22    21    22    1
@<TRIPOS>SUBSTRUCTURE
       1 MOL1            1 RESIDUE      1      MOL     
@<SCITEGIC>MOL_PROPERTY
VConf Rank
SciTegic.value.IntegerValue
374

@<SCITEGIC>MOL_PROPERTY
Conf_Id
SciTegic.value.IntegerValue
104

@<SCITEGIC>MOL_PROPERTY
Delta U+W
SciTegic.value.DoubleValue
-1.172

@<SCITEGIC>MOL_PROPERTY
U+W
SciTegic.value.DoubleValue
5.252

@<SCITEGIC>MOL_PROPERTY
Grad RMS
SciTegic.value.DoubleValue
0.000000

@<SCITEGIC>MOL_PROPERTY
U
SciTegic.value.DoubleValue
7.482

@<SCITEGIC>MOL_PROPERTY
W
SciTegic.value.DoubleValue
-2.230

@<SCITEGIC>MOL_PROPERTY
W(PB)
SciTegic.value.DoubleValue
-4.220

@<SCITEGIC>MOL_PROPERTY
W(SA)
SciTegic.value.DoubleValue
1.990

@<SCITEGIC>MOL_PROPERTY
Valence
SciTegic.value.DoubleValue
12.309

@<SCITEGIC>MOL_PROPERTY
Coulomb
SciTegic.value.DoubleValue
-7.084

@<SCITEGIC>MOL_PROPERTY
VdW
SciTegic.value.DoubleValue
2.258

@<SCITEGIC>MOL_PROPERTY
VdW6
SciTegic.value.DoubleValue
-9.770

@<SCITEGIC>MOL_PROPERTY
VdW12
SciTegic.value.DoubleValue
12.028

@<SCITEGIC>MOL_PROPERTY
Bond
SciTegic.value.DoubleValue
0.284

@<SCITEGIC>MOL_PROPERTY
Angle
SciTegic.value.DoubleValue
3.491

@<SCITEGIC>MOL_PROPERTY
Pdih
SciTegic.value.DoubleValue
8.535

@<SCITEGIC>MOL_PROPERTY
Idih
SciTegic.value.DoubleValue
0.000

@<SCITEGIC>MOL_PROPERTY
Tether
SciTegic.value.DoubleValue
0.000

@<TRIPOS>MOLECULE
guest-5_confgen4.mol2 : confsearch ligand conformer 375
          22          22           1
SMALL
USER_CHARGES
 
@<TRIPOS>ATOM
       1    C1      20.601139   21.015151   23.284835 C.3        1 MOL1        -0.1685
       2    H1      20.331252   20.745402   24.314825 H          1 MOL1         0.0832
       3    H2      21.012311   22.032586   23.336825 H          1 MOL1         0.0832
       4    C2      19.349326   21.056879   22.378906 C.3        1 MOL1        -0.1685
       5    H3      18.825617   22.007762   22.548605 H          1 MOL1         0.0832
       6    H4      19.662517   21.089084   21.327140 H          1 MOL1         0.0832
       7    C3      18.327822   19.911079   22.591854 C.3        1 MOL1        -0.1685
       8    H5      17.760708   19.773266   21.660884 H          1 MOL1         0.0832
       9    H6      17.589442   20.237950   23.336756 H          1 MOL1         0.0832
      10    C4      18.885037   18.538325   23.056893 C.3        1 MOL1        -0.1761
      11    H7      19.083648   18.578521   24.135732 H          1 MOL1         0.0832
      12    H8      18.088913   17.791866   22.938623 H          1 MOL1         0.0832
      13    C5      20.148512   18.011072   22.338828 C.3        1 MOL1         0.1218
      14    H9      20.175095   16.921249   22.481863 H          1 MOL1         0.0789
      15    C6      21.457736   18.572345   22.938139 C.3        1 MOL1        -0.1761
      16    H10     21.479334   18.343744   24.011608 H          1 MOL1         0.0832
      17    H11     22.298985   18.018618   22.501182 H          1 MOL1         0.0832
      18    C7      21.714098   20.087190   22.742403 C.3        1 MOL1        -0.1685
      19    H12     22.652689   20.338364   23.254916 H          1 MOL1         0.0832
      20    H13     21.892123   20.300537   21.679733 H          1 MOL1         0.0832
      21    O1      20.086347   18.292615   20.949209 O.3        1 MOL1        -0.5509
      22    H14     19.981058   19.263917   20.907100 H          1 MOL1         0.3779
@<TRIPOS>BOND
    1     1     2    1
    2     1     3    1
    3     1     4    1
    4     4     5    1
    5     4     6    1
    6     4     7    1
    7     7     8    1
    8     7     9    1
    9     7    10    1
   10    10    11    1
   11    10    12    1
   12    10    13    1
   13    13    14    1
   14    13    15    1
   15    15    16    1
   16    15    17    1
   17     1    18    1
   18    15    18    1
   19    18    19    1
   20    18    20    1
   21    13    21    1
   22    21    22    1
@<TRIPOS>SUBSTRUCTURE
       1 MOL1            1 RESIDUE      1      MOL     
@<SCITEGIC>MOL_PROPERTY
VConf Rank
SciTegic.value.IntegerValue
375

@<SCITEGIC>MOL_PROPERTY
Conf_Id
SciTegic.value.IntegerValue
99

@<SCITEGIC>MOL_PROPERTY
Delta U+W
SciTegic.value.DoubleValue
-3.852

@<SCITEGIC>MOL_PROPERTY
U+W
SciTegic.value.DoubleValue
2.572

@<SCITEGIC>MOL_PROPERTY
Grad RMS
SciTegic.value.DoubleValue
0.000000

@<SCITEGIC>MOL_PROPERTY
U
SciTegic.value.DoubleValue
3.922

@<SCITEGIC>MOL_PROPERTY
W
SciTegic.value.DoubleValue
-1.350

@<SCITEGIC>MOL_PROPERTY
W(PB)
SciTegic.value.DoubleValue
-3.345

@<SCITEGIC>MOL_PROPERTY
W(SA)
SciTegic.value.DoubleValue
1.995

@<SCITEGIC>MOL_PROPERTY
Valence
SciTegic.value.DoubleValue
12.571

@<SCITEGIC>MOL_PROPERTY
Coulomb
SciTegic.value.DoubleValue
-10.581

@<SCITEGIC>MOL_PROPERTY
VdW
SciTegic.value.DoubleValue
1.932

@<SCITEGIC>MOL_PROPERTY
VdW6
SciTegic.value.DoubleValue
-10.483

@<SCITEGIC>MOL_PROPERTY
VdW12
SciTegic.value.DoubleValue
12.415

@<SCITEGIC>MOL_PROPERTY
Bond
SciTegic.value.DoubleValue
0.268

@<SCITEGIC>MOL_PROPERTY
Angle
SciTegic.value.DoubleValue
3.728

@<SCITEGIC>MOL_PROPERTY
Pdih
SciTegic.value.DoubleValue
8.575

@<SCITEGIC>MOL_PROPERTY
Idih
SciTegic.value.DoubleValue
0.000

@<SCITEGIC>MOL_PROPERTY
Tether
SciTegic.value.DoubleValue
0.000

@<TRIPOS>MOLECULE
guest-5_confgen4.mol2 : confsearch ligand conformer 376
          22          22           1
SMALL
USER_CHARGES
 
@<TRIPOS>ATOM
       1    C1      18.789989   18.574098   22.979799 C.3        1 MOL1        -0.1685
       2    H1      17.816597   18.138028   22.715901 H          1 MOL1         0.0832
       3    H2      19.076606   18.079938   23.917729 H          1 MOL1         0.0832
       4    C2      18.581315   20.098341   23.218527 C.3        1 MOL1        -0.1685
       5    H3      17.517574   20.321980   23.058117 H          1 MOL1         0.0832
       6    H4      18.766638   20.345156   24.272467 H          1 MOL1         0.0832
       7    C3      19.405344   21.046856   22.310757 C.3        1 MOL1        -0.1685
       8    H5      19.026285   22.069315   22.443485 H          1 MOL1         0.0832
       9    H6      19.208322   20.814530   21.256823 H          1 MOL1         0.0832
      10    C4      20.938216   21.071592   22.564768 C.3        1 MOL1        -0.1761
      11    H7      21.430587   21.440041   21.655615 H          1 MOL1         0.0832
      12    H8      21.149964   21.825179   23.335004 H          1 MOL1         0.0832
      13    C5      21.629825   19.755319   22.997505 C.3        1 MOL1         0.1218
      14    H9      22.713150   19.918218   22.904521 H          1 MOL1         0.0789
      15    C6      21.290863   18.496388   22.161837 C.3        1 MOL1        -0.1761
      16    H10     21.825097   18.560342   21.205152 H          1 MOL1         0.0832
      17    H11     21.724256   17.629765   22.678685 H          1 MOL1         0.0832
      18    C7      19.796187   18.193070   21.863941 C.3        1 MOL1        -0.1685
      19    H12     19.502117   18.670864   20.921178 H          1 MOL1         0.0832
      20    H13     19.704557   17.116095   21.667843 H          1 MOL1         0.0832
      21    O1      21.360250   19.504000   24.367691 O.3        1 MOL1        -0.5509
      22    H14     20.392131   19.366786   24.396842 H          1 MOL1         0.3779
@<TRIPOS>BOND
    1     1     2    1
    2     1     3    1
    3     1     4    1
    4     4     5    1
    5     4     6    1
    6     4     7    1
    7     7     8    1
    8     7     9    1
    9     7    10    1
   10    10    11    1
   11    10    12    1
   12    10    13    1
   13    13    14    1
   14    13    15    1
   15    15    16    1
   16    15    17    1
   17     1    18    1
   18    15    18    1
   19    18    19    1
   20    18    20    1
   21    13    21    1
   22    21    22    1
@<TRIPOS>SUBSTRUCTURE
       1 MOL1            1 RESIDUE      1      MOL     
@<SCITEGIC>MOL_PROPERTY
VConf Rank
SciTegic.value.IntegerValue
376

@<SCITEGIC>MOL_PROPERTY
Conf_Id
SciTegic.value.IntegerValue
98

@<SCITEGIC>MOL_PROPERTY
Delta U+W
SciTegic.value.DoubleValue
0.930

@<SCITEGIC>MOL_PROPERTY
U+W
SciTegic.value.DoubleValue
7.353

@<SCITEGIC>MOL_PROPERTY
Grad RMS
SciTegic.value.DoubleValue
0.000000

@<SCITEGIC>MOL_PROPERTY
U
SciTegic.value.DoubleValue
8.455

@<SCITEGIC>MOL_PROPERTY
W
SciTegic.value.DoubleValue
-1.102

@<SCITEGIC>MOL_PROPERTY
W(PB)
SciTegic.value.DoubleValue
-3.101

@<SCITEGIC>MOL_PROPERTY
W(SA)
SciTegic.value.DoubleValue
2.000

@<SCITEGIC>MOL_PROPERTY
Valence
SciTegic.value.DoubleValue
15.601

@<SCITEGIC>MOL_PROPERTY
Coulomb
SciTegic.value.DoubleValue
-10.573

@<SCITEGIC>MOL_PROPERTY
VdW
SciTegic.value.DoubleValue
3.427

@<SCITEGIC>MOL_PROPERTY
VdW6
SciTegic.value.DoubleValue
-11.360

@<SCITEGIC>MOL_PROPERTY
VdW12
SciTegic.value.DoubleValue
14.787

@<SCITEGIC>MOL_PROPERTY
Bond
SciTegic.value.DoubleValue
0.471

@<SCITEGIC>MOL_PROPERTY
Angle
SciTegic.value.DoubleValue
5.445

@<SCITEGIC>MOL_PROPERTY
Pdih
SciTegic.value.DoubleValue
9.685

@<SCITEGIC>MOL_PROPERTY
Idih
SciTegic.value.DoubleValue
0.000

@<SCITEGIC>MOL_PROPERTY
Tether
SciTegic.value.DoubleValue
0.000

@<TRIPOS>MOLECULE
guest-5_confgen4.mol2 : confsearch ligand conformer 377
          22          22           1
SMALL
USER_CHARGES
 
@<TRIPOS>ATOM
       1    C1      20.316746   17.868528   22.955328 C.3        1 MOL1        -0.1685
       2    H1      20.417147   18.131426   24.016264 H          1 MOL1         0.0832
       3    H2      20.427070   16.776129   22.920602 H          1 MOL1         0.0832
       4    C2      21.473719   18.507154   22.145557 C.3        1 MOL1        -0.1685
       5    H3      22.417050   18.125998   22.559951 H          1 MOL1         0.0832
       6    H4      21.438162   18.148298   21.107972 H          1 MOL1         0.0832
       7    C3      21.537459   20.059758   22.146934 C.3        1 MOL1        -0.1685
       8    H5      21.162140   20.452688   21.193122 H          1 MOL1         0.0832
       9    H6      22.593834   20.359123   22.179888 H          1 MOL1         0.0832
      10    C4      20.789249   20.747079   23.319744 C.3        1 MOL1        -0.1761
      11    H7      21.122338   20.305481   24.267198 H          1 MOL1         0.0832
      12    H8      21.113251   21.795432   23.368376 H          1 MOL1         0.0832
      13    C5      19.234408   20.702665   23.253649 C.3        1 MOL1         0.1218
      14    H9      18.861209   20.413496   24.246711 H          1 MOL1         0.0789
      15    C6      18.628640   19.732525   22.208599 C.3        1 MOL1        -0.1761
      16    H10     17.541553   19.881145   22.173786 H          1 MOL1         0.0832
      17    H11     18.985179   19.999842   21.206596 H          1 MOL1         0.0832
      18    C7      18.893910   18.228253   22.466680 C.3        1 MOL1        -0.1685
      19    H12     18.174263   17.863209   23.212109 H          1 MOL1         0.0832
      20    H13     18.678936   17.673324   21.543365 H          1 MOL1         0.0832
      21    O1      18.758842   22.008832   22.948786 O.3        1 MOL1        -0.5509
      22    H14     17.780150   21.965420   22.970120 H          1 MOL1         0.3779
@<TRIPOS>BOND
    1     1     2    1
    2     1     3    1
    3     1     4    1
    4     4     5    1
    5     4     6    1
    6     4     7    1
    7     7     8    1
    8     7     9    1
    9     7    10    1
   10    10    11    1
   11    10    12    1
   12    10    13    1
   13    13    14    1
   14    13    15    1
   15    15    16    1
   16    15    17    1
   17     1    18    1
   18    15    18    1
   19    18    19    1
   20    18    20    1
   21    13    21    1
   22    21    22    1
@<TRIPOS>SUBSTRUCTURE
       1 MOL1            1 RESIDUE      1      MOL     
@<SCITEGIC>MOL_PROPERTY
VConf Rank
SciTegic.value.IntegerValue
377

@<SCITEGIC>MOL_PROPERTY
Conf_Id
SciTegic.value.IntegerValue
141

@<SCITEGIC>MOL_PROPERTY
Delta U+W
SciTegic.value.DoubleValue
0.000

@<SCITEGIC>MOL_PROPERTY
U+W
SciTegic.value.DoubleValue
6.423

@<SCITEGIC>MOL_PROPERTY
Grad RMS
SciTegic.value.DoubleValue
0.000000

@<SCITEGIC>MOL_PROPERTY
U
SciTegic.value.DoubleValue
8.781

@<SCITEGIC>MOL_PROPERTY
W
SciTegic.value.DoubleValue
-2.358

@<SCITEGIC>MOL_PROPERTY
W(PB)
SciTegic.value.DoubleValue
-4.373

@<SCITEGIC>MOL_PROPERTY
W(SA)
SciTegic.value.DoubleValue
2.015

@<SCITEGIC>MOL_PROPERTY
Valence
SciTegic.value.DoubleValue
13.328

@<SCITEGIC>MOL_PROPERTY
Coulomb
SciTegic.value.DoubleValue
-8.387

@<SCITEGIC>MOL_PROPERTY
VdW
SciTegic.value.DoubleValue
3.840

@<SCITEGIC>MOL_PROPERTY
VdW6
SciTegic.value.DoubleValue
-9.744

@<SCITEGIC>MOL_PROPERTY
VdW12
SciTegic.value.DoubleValue
13.584

@<SCITEGIC>MOL_PROPERTY
Bond
SciTegic.value.DoubleValue
0.436

@<SCITEGIC>MOL_PROPERTY
Angle
SciTegic.value.DoubleValue
3.478

@<SCITEGIC>MOL_PROPERTY
Pdih
SciTegic.value.DoubleValue
9.415

@<SCITEGIC>MOL_PROPERTY
Idih
SciTegic.value.DoubleValue
0.000

@<SCITEGIC>MOL_PROPERTY
Tether
SciTegic.value.DoubleValue
0.000

@<TRIPOS>MOLECULE
guest-5_confgen4.mol2 : confsearch ligand conformer 378
          22          22           1
SMALL
USER_CHARGES
 
@<TRIPOS>ATOM
       1    C1      19.563627   18.118914   21.848381 C.3        1 MOL1        -0.1685
       2    H1      18.898467   18.692395   21.188615 H          1 MOL1         0.0832
       3    H2      19.521249   17.080032   21.493651 H          1 MOL1         0.0832
       4    C2      19.047350   18.138360   23.307399 C.3        1 MOL1        -0.1685
       5    H3      18.115804   17.558146   23.356700 H          1 MOL1         0.0832
       6    H4      19.762071   17.610693   23.953635 H          1 MOL1         0.0832
       7    C3      18.771613   19.543440   23.890537 C.3        1 MOL1        -0.1685
       8    H5      18.478621   19.426005   24.942769 H          1 MOL1         0.0832
       9    H6      17.901593   19.984100   23.384727 H          1 MOL1         0.0832
      10    C4      19.964333   20.527885   23.816594 C.3        1 MOL1        -0.1761
      11    H7      19.725551   21.387313   24.456790 H          1 MOL1         0.0832
      12    H8      20.868803   20.072965   24.240832 H          1 MOL1         0.0832
      13    C5      20.234097   21.031392   22.380859 C.3        1 MOL1         0.1218
      14    H9      19.273003   21.088624   21.849948 H          1 MOL1         0.0789
      15    C6      21.190862   20.139674   21.557004 C.3        1 MOL1        -0.1761
      16    H10     21.055282   20.397760   20.498770 H          1 MOL1         0.0832
      17    H11     22.229762   20.400489   21.799432 H          1 MOL1         0.0832
      18    C7      21.025291   18.608054   21.720618 C.3        1 MOL1        -0.1685
      19    H12     21.489588   18.121756   20.851845 H          1 MOL1         0.0832
      20    H13     21.601881   18.267085   22.591246 H          1 MOL1         0.0832
      21    O1      20.797681   22.335502   22.450776 O.3        1 MOL1        -0.5509
      22    H14     20.142531   22.901925   22.909645 H          1 MOL1         0.3779
@<TRIPOS>BOND
    1     1     2    1
    2     1     3    1
    3     1     4    1
    4     4     5    1
    5     4     6    1
    6     4     7    1
    7     7     8    1
    8     7     9    1
    9     7    10    1
   10    10    11    1
   11    10    12    1
   12    10    13    1
   13    13    14    1
   14    13    15    1
   15    15    16    1
   16    15    17    1
   17     1    18    1
   18    15    18    1
   19    18    19    1
   20    18    20    1
   21    13    21    1
   22    21    22    1
@<TRIPOS>SUBSTRUCTURE
       1 MOL1            1 RESIDUE      1      MOL     
@<SCITEGIC>MOL_PROPERTY
VConf Rank
SciTegic.value.IntegerValue
378

@<SCITEGIC>MOL_PROPERTY
Conf_Id
SciTegic.value.IntegerValue
144

@<SCITEGIC>MOL_PROPERTY
Delta U+W
SciTegic.value.DoubleValue
-3.291

@<SCITEGIC>MOL_PROPERTY
U+W
SciTegic.value.DoubleValue
3.132

@<SCITEGIC>MOL_PROPERTY
Grad RMS
SciTegic.value.DoubleValue
0.000000

@<SCITEGIC>MOL_PROPERTY
U
SciTegic.value.DoubleValue
5.411

@<SCITEGIC>MOL_PROPERTY
W
SciTegic.value.DoubleValue
-2.279

@<SCITEGIC>MOL_PROPERTY
W(PB)
SciTegic.value.DoubleValue
-4.300

@<SCITEGIC>MOL_PROPERTY
W(SA)
SciTegic.value.DoubleValue
2.021

@<SCITEGIC>MOL_PROPERTY
Valence
SciTegic.value.DoubleValue
11.909

@<SCITEGIC>MOL_PROPERTY
Coulomb
SciTegic.value.DoubleValue
-8.733

@<SCITEGIC>MOL_PROPERTY
VdW
SciTegic.value.DoubleValue
2.236

@<SCITEGIC>MOL_PROPERTY
VdW6
SciTegic.value.DoubleValue
-8.936

@<SCITEGIC>MOL_PROPERTY
VdW12
SciTegic.value.DoubleValue
11.172

@<SCITEGIC>MOL_PROPERTY
Bond
SciTegic.value.DoubleValue
0.223

@<SCITEGIC>MOL_PROPERTY
Angle
SciTegic.value.DoubleValue
2.457

@<SCITEGIC>MOL_PROPERTY
Pdih
SciTegic.value.DoubleValue
9.228

@<SCITEGIC>MOL_PROPERTY
Idih
SciTegic.value.DoubleValue
0.000

@<SCITEGIC>MOL_PROPERTY
Tether
SciTegic.value.DoubleValue
0.000

@<TRIPOS>MOLECULE
guest-5_confgen4.mol2 : confsearch ligand conformer 379
          22          22           1
SMALL
USER_CHARGES
 
@<TRIPOS>ATOM
       1    C1      18.478269   18.696019   22.289234 C.3        1 MOL1        -0.1685
       2    H1      17.484031   18.230993   22.335414 H          1 MOL1         0.0832
       3    H2      18.861082   18.495180   21.279383 H          1 MOL1         0.0832
       4    C2      19.370185   18.025457   23.360171 C.3        1 MOL1        -0.1685
       5    H3      19.180008   18.489929   24.337347 H          1 MOL1         0.0832
       6    H4      19.064820   16.975898   23.470516 H          1 MOL1         0.0832
       7    C3      20.888396   18.050992   23.059663 C.3        1 MOL1        -0.1685
       8    H5      21.135110   17.212624   22.393940 H          1 MOL1         0.0832
       9    H6      21.426270   17.855270   23.997427 H          1 MOL1         0.0832
      10    C4      21.440760   19.350373   22.423547 C.3        1 MOL1        -0.1761
      11    H7      22.528682   19.361987   22.574416 H          1 MOL1         0.0832
      12    H8      21.291418   19.311400   21.336775 H          1 MOL1         0.0832
      13    C5      20.829586   20.657343   22.976619 C.3        1 MOL1         0.1218
      14    H9      20.605186   20.535298   24.045833 H          1 MOL1         0.0789
      15    C6      19.547598   21.077563   22.222365 C.3        1 MOL1        -0.1761
      16    H10     19.311618   22.118117   22.482539 H          1 MOL1         0.0832
      17    H11     19.739757   21.071299   21.141568 H          1 MOL1         0.0832
      18    C7      18.297817   20.215577   22.520264 C.3        1 MOL1        -0.1685
      19    H12     17.972678   20.391210   23.554847 H          1 MOL1         0.0832
      20    H13     17.476031   20.571407   21.883995 H          1 MOL1         0.0832
      21    O1      21.786219   21.697443   22.824112 O.3        1 MOL1        -0.5509
      22    H14     21.960554   21.774246   21.863452 H          1 MOL1         0.3779
@<TRIPOS>BOND
    1     1     2    1
    2     1     3    1
    3     1     4    1
    4     4     5    1
    5     4     6    1
    6     4     7    1
    7     7     8    1
    8     7     9    1
    9     7    10    1
   10    10    11    1
   11    10    12    1
   12    10    13    1
   13    13    14    1
   14    13    15    1
   15    15    16    1
   16    15    17    1
   17     1    18    1
   18    15    18    1
   19    18    19    1
   20    18    20    1
   21    13    21    1
   22    21    22    1
@<TRIPOS>SUBSTRUCTURE
       1 MOL1            1 RESIDUE      1      MOL     
@<SCITEGIC>MOL_PROPERTY
VConf Rank
SciTegic.value.IntegerValue
379

@<SCITEGIC>MOL_PROPERTY
Conf_Id
SciTegic.value.IntegerValue
76

@<SCITEGIC>MOL_PROPERTY
Delta U+W
SciTegic.value.DoubleValue
-3.175

@<SCITEGIC>MOL_PROPERTY
U+W
SciTegic.value.DoubleValue
3.248

@<SCITEGIC>MOL_PROPERTY
Grad RMS
SciTegic.value.DoubleValue
0.000000

@<SCITEGIC>MOL_PROPERTY
U
SciTegic.value.DoubleValue
5.336

@<SCITEGIC>MOL_PROPERTY
W
SciTegic.value.DoubleValue
-2.088

@<SCITEGIC>MOL_PROPERTY
W(PB)
SciTegic.value.DoubleValue
-4.098

@<SCITEGIC>MOL_PROPERTY
W(SA)
SciTegic.value.DoubleValue
2.010

@<SCITEGIC>MOL_PROPERTY
Valence
SciTegic.value.DoubleValue
12.390

@<SCITEGIC>MOL_PROPERTY
Coulomb
SciTegic.value.DoubleValue
-9.270

@<SCITEGIC>MOL_PROPERTY
VdW
SciTegic.value.DoubleValue
2.216

@<SCITEGIC>MOL_PROPERTY
VdW6
SciTegic.value.DoubleValue
-8.967

@<SCITEGIC>MOL_PROPERTY
VdW12
SciTegic.value.DoubleValue
11.183

@<SCITEGIC>MOL_PROPERTY
Bond
SciTegic.value.DoubleValue
0.218

@<SCITEGIC>MOL_PROPERTY
Angle
SciTegic.value.DoubleValue
2.426

@<SCITEGIC>MOL_PROPERTY
Pdih
SciTegic.value.DoubleValue
9.745

@<SCITEGIC>MOL_PROPERTY
Idih
SciTegic.value.DoubleValue
0.000

@<SCITEGIC>MOL_PROPERTY
Tether
SciTegic.value.DoubleValue
0.000

@<TRIPOS>MOLECULE
guest-5_confgen4.mol2 : confsearch ligand conformer 380
          22          22           1
SMALL
USER_CHARGES
 
@<TRIPOS>ATOM
       1    C1      18.767298   20.740464   22.036273 C.3        1 MOL1        -0.1685
       2    H1      18.935074   21.715679   21.559211 H          1 MOL1         0.0832
       3    H2      17.684682   20.562995   21.979158 H          1 MOL1         0.0832
       4    C2      19.179358   20.852028   23.523699 C.3        1 MOL1        -0.1685
       5    H3      20.056664   21.506894   23.612942 H          1 MOL1         0.0832
       6    H4      18.372218   21.367642   24.061705 H          1 MOL1         0.0832
       7    C3      19.469653   19.504676   24.225064 C.3        1 MOL1        -0.1685
       8    H5      18.779670   18.723505   23.877889 H          1 MOL1         0.0832
       9    H6      19.273154   19.629639   25.298406 H          1 MOL1         0.0832
      10    C4      20.942612   19.049924   24.064833 C.3        1 MOL1        -0.1761
      11    H7      21.607927   19.874637   24.350694 H          1 MOL1         0.0832
      12    H8      21.141732   18.246922   24.786603 H          1 MOL1         0.0832
      13    C5      21.352333   18.542939   22.663337 C.3        1 MOL1         0.1218
      14    H9      22.446883   18.438110   22.671621 H          1 MOL1         0.0789
      15    C6      20.993923   19.488552   21.489520 C.3        1 MOL1        -0.1761
      16    H10     21.447431   20.474490   21.654249 H          1 MOL1         0.0832
      17    H11     21.472377   19.090166   20.585553 H          1 MOL1         0.0832
      18    C7      19.476770   19.643207   21.207479 C.3        1 MOL1        -0.1685
      19    H12     19.337260   19.880851   20.144236 H          1 MOL1         0.0832
      20    H13     18.965423   18.683716   21.360264 H          1 MOL1         0.0832
      21    O1      20.785101   17.255027   22.445270 O.3        1 MOL1        -0.5509
      22    H14     21.024677   16.995744   21.532221 H          1 MOL1         0.3779
@<TRIPOS>BOND
    1     1     2    1
    2     1     3    1
    3     1     4    1
    4     4     5    1
    5     4     6    1
    6     4     7    1
    7     7     8    1
    8     7     9    1
    9     7    10    1
   10    10    11    1
   11    10    12    1
   12    10    13    1
   13    13    14    1
   14    13    15    1
   15    15    16    1
   16    15    17    1
   17     1    18    1
   18    15    18    1
   19    18    19    1
   20    18    20    1
   21    13    21    1
   22    21    22    1
@<TRIPOS>SUBSTRUCTURE
       1 MOL1            1 RESIDUE      1      MOL     
@<SCITEGIC>MOL_PROPERTY
VConf Rank
SciTegic.value.IntegerValue
380

@<SCITEGIC>MOL_PROPERTY
Conf_Id
SciTegic.value.IntegerValue
95

@<SCITEGIC>MOL_PROPERTY
Delta U+W
SciTegic.value.DoubleValue
-2.289

@<SCITEGIC>MOL_PROPERTY
U+W
SciTegic.value.DoubleValue
4.134

@<SCITEGIC>MOL_PROPERTY
Grad RMS
SciTegic.value.DoubleValue
0.000000

@<SCITEGIC>MOL_PROPERTY
U
SciTegic.value.DoubleValue
6.373

@<SCITEGIC>MOL_PROPERTY
W
SciTegic.value.DoubleValue
-2.240

@<SCITEGIC>MOL_PROPERTY
W(PB)
SciTegic.value.DoubleValue
-4.254

@<SCITEGIC>MOL_PROPERTY
W(SA)
SciTegic.value.DoubleValue
2.015

@<SCITEGIC>MOL_PROPERTY
Valence
SciTegic.value.DoubleValue
12.093

@<SCITEGIC>MOL_PROPERTY
Coulomb
SciTegic.value.DoubleValue
-8.058

@<SCITEGIC>MOL_PROPERTY
VdW
SciTegic.value.DoubleValue
2.339

@<SCITEGIC>MOL_PROPERTY
VdW6
SciTegic.value.DoubleValue
-9.683

@<SCITEGIC>MOL_PROPERTY
VdW12
SciTegic.value.DoubleValue
12.022

@<SCITEGIC>MOL_PROPERTY
Bond
SciTegic.value.DoubleValue
0.268

@<SCITEGIC>MOL_PROPERTY
Angle
SciTegic.value.DoubleValue
3.005

@<SCITEGIC>MOL_PROPERTY
Pdih
SciTegic.value.DoubleValue
8.820

@<SCITEGIC>MOL_PROPERTY
Idih
SciTegic.value.DoubleValue
0.000

@<SCITEGIC>MOL_PROPERTY
Tether
SciTegic.value.DoubleValue
0.000

@<TRIPOS>MOLECULE
guest-5_confgen4.mol2 : confsearch ligand conformer 381
          22          22           1
SMALL
USER_CHARGES
 
@<TRIPOS>ATOM
       1    C1      20.121037   21.410221   22.018842 C.3        1 MOL1        -0.1685
       2    H1      19.289853   22.031362   21.658186 H          1 MOL1         0.0832
       3    H2      21.018268   22.039413   21.942144 H          1 MOL1         0.0832
       4    C2      20.272853   20.202640   21.063318 C.3        1 MOL1        -0.1685
       5    H3      19.280280   19.879507   20.721463 H          1 MOL1         0.0832
       6    H4      20.795843   20.547658   20.160964 H          1 MOL1         0.0832
       7    C3      21.033680   18.992149   21.652699 C.3        1 MOL1        -0.1685
       8    H5      21.863732   19.322731   22.291877 H          1 MOL1         0.0832
       9    H6      21.490815   18.439685   20.820691 H          1 MOL1         0.0832
      10    C4      20.103046   18.014547   22.413963 C.3        1 MOL1        -0.1761
      11    H7      19.240905   17.772085   21.779280 H          1 MOL1         0.0832
      12    H8      20.634316   17.064858   22.558266 H          1 MOL1         0.0832
      13    C5      19.585226   18.496687   23.788423 C.3        1 MOL1         0.1218
      14    H9      18.814755   17.779702   24.106870 H          1 MOL1         0.0789
      15    C6      18.927836   19.899602   23.788462 C.3        1 MOL1        -0.1761
      16    H10     18.092666   19.921979   23.076789 H          1 MOL1         0.0832
      17    H11     18.480941   20.048221   24.779939 H          1 MOL1         0.0832
      18    C7      19.894472   21.080943   23.513706 C.3        1 MOL1        -0.1685
      19    H12     19.497837   21.981671   24.001135 H          1 MOL1         0.0832
      20    H13     20.861831   20.891904   23.997544 H          1 MOL1         0.0832
      21    O1      20.648749   18.454546   24.735014 O.3        1 MOL1        -0.5509
      22    H14     21.037393   17.557706   24.681917 H          1 MOL1         0.3779
@<TRIPOS>BOND
    1     1     2    1
    2     1     3    1
    3     1     4    1
    4     4     5    1
    5     4     6    1
    6     4     7    1
    7     7     8    1
    8     7     9    1
    9     7    10    1
   10    10    11    1
   11    10    12    1
   12    10    13    1
   13    13    14    1
   14    13    15    1
   15    15    16    1
   16    15    17    1
   17     1    18    1
   18    15    18    1
   19    18    19    1
   20    18    20    1
   21    13    21    1
   22    21    22    1
@<TRIPOS>SUBSTRUCTURE
       1 MOL1            1 RESIDUE      1      MOL     
@<SCITEGIC>MOL_PROPERTY
VConf Rank
SciTegic.value.IntegerValue
381

@<SCITEGIC>MOL_PROPERTY
Conf_Id
SciTegic.value.IntegerValue
41

@<SCITEGIC>MOL_PROPERTY
Delta U+W
SciTegic.value.DoubleValue
-2.114

@<SCITEGIC>MOL_PROPERTY
U+W
SciTegic.value.DoubleValue
4.310

@<SCITEGIC>MOL_PROPERTY
Grad RMS
SciTegic.value.DoubleValue
0.000000

@<SCITEGIC>MOL_PROPERTY
U
SciTegic.value.DoubleValue
6.598

@<SCITEGIC>MOL_PROPERTY
W
SciTegic.value.DoubleValue
-2.289

@<SCITEGIC>MOL_PROPERTY
W(PB)
SciTegic.value.DoubleValue
-4.294

@<SCITEGIC>MOL_PROPERTY
W(SA)
SciTegic.value.DoubleValue
2.005

@<SCITEGIC>MOL_PROPERTY
Valence
SciTegic.value.DoubleValue
12.082

@<SCITEGIC>MOL_PROPERTY
Coulomb
SciTegic.value.DoubleValue
-7.801

@<SCITEGIC>MOL_PROPERTY
VdW
SciTegic.value.DoubleValue
2.317

@<SCITEGIC>MOL_PROPERTY
VdW6
SciTegic.value.DoubleValue
-9.658

@<SCITEGIC>MOL_PROPERTY
VdW12
SciTegic.value.DoubleValue
11.975

@<SCITEGIC>MOL_PROPERTY
Bond
SciTegic.value.DoubleValue
0.267

@<SCITEGIC>MOL_PROPERTY
Angle
SciTegic.value.DoubleValue
3.051

@<SCITEGIC>MOL_PROPERTY
Pdih
SciTegic.value.DoubleValue
8.764

@<SCITEGIC>MOL_PROPERTY
Idih
SciTegic.value.DoubleValue
0.000

@<SCITEGIC>MOL_PROPERTY
Tether
SciTegic.value.DoubleValue
0.000

@<TRIPOS>MOLECULE
guest-5_confgen4.mol2 : confsearch ligand conformer 382
          22          22           1
SMALL
USER_CHARGES
 
@<TRIPOS>ATOM
       1    C1      18.584711   19.534267   23.438814 C.3        1 MOL1        -0.1685
       2    H1      17.733919   19.479313   24.131405 H          1 MOL1         0.0832
       3    H2      18.229192   20.085469   22.557362 H          1 MOL1         0.0832
       4    C2      18.979420   18.089888   23.057552 C.3        1 MOL1        -0.1685
       5    H3      19.389750   17.576535   23.937711 H          1 MOL1         0.0832
       6    H4      18.069763   17.538244   22.784107 H          1 MOL1         0.0832
       7    C3      19.980008   17.983429   21.885924 C.3        1 MOL1        -0.1685
       8    H5      19.490190   18.303939   20.956816 H          1 MOL1         0.0832
       9    H6      20.219295   16.921443   21.740827 H          1 MOL1         0.0832
      10    C4      21.309657   18.761361   22.080971 C.3        1 MOL1        -0.1761
      11    H7      21.761431   18.499122   23.046056 H          1 MOL1         0.0832
      12    H8      22.015496   18.409011   21.317935 H          1 MOL1         0.0832
      13    C5      21.220629   20.303163   21.943301 C.3        1 MOL1         0.1218
      14    H9      22.247009   20.665521   21.786722 H          1 MOL1         0.0789
      15    C6      20.679521   21.063143   23.182160 C.3        1 MOL1        -0.1761
      16    H10     21.539765   21.402879   23.773448 H          1 MOL1         0.0832
      17    H11     20.179001   21.981461   22.848033 H          1 MOL1         0.0832
      18    C7      19.728952   20.300768   24.138248 C.3        1 MOL1        -0.1685
      19    H12     20.307451   19.611583   24.768151 H          1 MOL1         0.0832
      20    H13     19.289984   21.033028   24.829464 H          1 MOL1         0.0832
      21    O1      20.458325   20.657543   20.792550 O.3        1 MOL1        -0.5509
      22    H14     20.470417   21.634518   20.735251 H          1 MOL1         0.3779
@<TRIPOS>BOND
    1     1     2    1
    2     1     3    1
    3     1     4    1
    4     4     5    1
    5     4     6    1
    6     4     7    1
    7     7     8    1
    8     7     9    1
    9     7    10    1
   10    10    11    1
   11    10    12    1
   12    10    13    1
   13    13    14    1
   14    13    15    1
   15    15    16    1
   16    15    17    1
   17     1    18    1
   18    15    18    1
   19    18    19    1
   20    18    20    1
   21    13    21    1
   22    21    22    1
@<TRIPOS>SUBSTRUCTURE
       1 MOL1            1 RESIDUE      1      MOL     
@<SCITEGIC>MOL_PROPERTY
VConf Rank
SciTegic.value.IntegerValue
382

@<SCITEGIC>MOL_PROPERTY
Conf_Id
SciTegic.value.IntegerValue
104

@<SCITEGIC>MOL_PROPERTY
Delta U+W
SciTegic.value.DoubleValue
-1.172

@<SCITEGIC>MOL_PROPERTY
U+W
SciTegic.value.DoubleValue
5.252

@<SCITEGIC>MOL_PROPERTY
Grad RMS
SciTegic.value.DoubleValue
0.000000

@<SCITEGIC>MOL_PROPERTY
U
SciTegic.value.DoubleValue
7.482

@<SCITEGIC>MOL_PROPERTY
W
SciTegic.value.DoubleValue
-2.230

@<SCITEGIC>MOL_PROPERTY
W(PB)
SciTegic.value.DoubleValue
-4.220

@<SCITEGIC>MOL_PROPERTY
W(SA)
SciTegic.value.DoubleValue
1.990

@<SCITEGIC>MOL_PROPERTY
Valence
SciTegic.value.DoubleValue
12.309

@<SCITEGIC>MOL_PROPERTY
Coulomb
SciTegic.value.DoubleValue
-7.084

@<SCITEGIC>MOL_PROPERTY
VdW
SciTegic.value.DoubleValue
2.258

@<SCITEGIC>MOL_PROPERTY
VdW6
SciTegic.value.DoubleValue
-9.770

@<SCITEGIC>MOL_PROPERTY
VdW12
SciTegic.value.DoubleValue
12.028

@<SCITEGIC>MOL_PROPERTY
Bond
SciTegic.value.DoubleValue
0.284

@<SCITEGIC>MOL_PROPERTY
Angle
SciTegic.value.DoubleValue
3.491

@<SCITEGIC>MOL_PROPERTY
Pdih
SciTegic.value.DoubleValue
8.535

@<SCITEGIC>MOL_PROPERTY
Idih
SciTegic.value.DoubleValue
0.000

@<SCITEGIC>MOL_PROPERTY
Tether
SciTegic.value.DoubleValue
0.000

@<TRIPOS>MOLECULE
guest-5_confgen4.mol2 : confsearch ligand conformer 383
          22          22           1
SMALL
USER_CHARGES
 
@<TRIPOS>ATOM
       1    C1      21.136240   19.019523   23.779380 C.3        1 MOL1        -0.1685
       2    H1      21.652744   18.382605   23.048598 H          1 MOL1         0.0832
       3    H2      21.638863   18.845298   24.740606 H          1 MOL1         0.0832
       4    C2      19.658151   18.594630   23.934953 C.3        1 MOL1        -0.1685
       5    H3      19.613987   17.713604   24.590004 H          1 MOL1         0.0832
       6    H4      19.109622   19.377547   24.474855 H          1 MOL1         0.0832
       7    C3      18.918795   18.241989   22.619403 C.3        1 MOL1        -0.1685
       8    H5      17.842306   18.400522   22.772218 H          1 MOL1         0.0832
       9    H6      19.031142   17.164676   22.435818 H          1 MOL1         0.0832
      10    C4      19.365308   18.984971   21.331067 C.3        1 MOL1        -0.1761
      11    H7      20.286295   18.523631   20.951721 H          1 MOL1         0.0832
      12    H8      18.610836   18.801113   20.555201 H          1 MOL1         0.0832
      13    C5      19.582450   20.511874   21.437818 C.3        1 MOL1         0.1218
      14    H9      19.497532   20.925967   20.422831 H          1 MOL1         0.0789
      15    C6      20.990475   20.883149   21.955398 C.3        1 MOL1        -0.1761
      16    H10     21.739421   20.414158   21.304101 H          1 MOL1         0.0832
      17    H11     21.126527   21.965341   21.830518 H          1 MOL1         0.0832
      18    C7      21.305106   20.516618   23.426946 C.3        1 MOL1        -0.1685
      19    H12     22.345967   20.803327   23.629721 H          1 MOL1         0.0832
      20    H13     20.693379   21.129775   24.102451 H          1 MOL1         0.0832
      21    O1      18.587543   21.100652   22.261025 O.3        1 MOL1        -0.5509
      22    H14     18.671020   20.626551   23.112227 H          1 MOL1         0.3779
@<TRIPOS>BOND
    1     1     2    1
    2     1     3    1
    3     1     4    1
    4     4     5    1
    5     4     6    1
    6     4     7    1
    7     7     8    1
    8     7     9    1
    9     7    10    1
   10    10    11    1
   11    10    12    1
   12    10    13    1
   13    13    14    1
   14    13    15    1
   15    15    16    1
   16    15    17    1
   17     1    18    1
   18    15    18    1
   19    18    19    1
   20    18    20    1
   21    13    21    1
   22    21    22    1
@<TRIPOS>SUBSTRUCTURE
       1 MOL1            1 RESIDUE      1      MOL     
@<SCITEGIC>MOL_PROPERTY
VConf Rank
SciTegic.value.IntegerValue
383

@<SCITEGIC>MOL_PROPERTY
Conf_Id
SciTegic.value.IntegerValue
99

@<SCITEGIC>MOL_PROPERTY
Delta U+W
SciTegic.value.DoubleValue
-3.852

@<SCITEGIC>MOL_PROPERTY
U+W
SciTegic.value.DoubleValue
2.572

@<SCITEGIC>MOL_PROPERTY
Grad RMS
SciTegic.value.DoubleValue
0.000000

@<SCITEGIC>MOL_PROPERTY
U
SciTegic.value.DoubleValue
3.922

@<SCITEGIC>MOL_PROPERTY
W
SciTegic.value.DoubleValue
-1.350

@<SCITEGIC>MOL_PROPERTY
W(PB)
SciTegic.value.DoubleValue
-3.345

@<SCITEGIC>MOL_PROPERTY
W(SA)
SciTegic.value.DoubleValue
1.995

@<SCITEGIC>MOL_PROPERTY
Valence
SciTegic.value.DoubleValue
12.571

@<SCITEGIC>MOL_PROPERTY
Coulomb
SciTegic.value.DoubleValue
-10.581

@<SCITEGIC>MOL_PROPERTY
VdW
SciTegic.value.DoubleValue
1.932

@<SCITEGIC>MOL_PROPERTY
VdW6
SciTegic.value.DoubleValue
-10.483

@<SCITEGIC>MOL_PROPERTY
VdW12
SciTegic.value.DoubleValue
12.415

@<SCITEGIC>MOL_PROPERTY
Bond
SciTegic.value.DoubleValue
0.268

@<SCITEGIC>MOL_PROPERTY
Angle
SciTegic.value.DoubleValue
3.728

@<SCITEGIC>MOL_PROPERTY
Pdih
SciTegic.value.DoubleValue
8.575

@<SCITEGIC>MOL_PROPERTY
Idih
SciTegic.value.DoubleValue
0.000

@<SCITEGIC>MOL_PROPERTY
Tether
SciTegic.value.DoubleValue
0.000

@<TRIPOS>MOLECULE
guest-5_confgen4.mol2 : confsearch ligand conformer 384
          22          22           1
SMALL
USER_CHARGES
 
@<TRIPOS>ATOM
       1    C1      20.025420   19.744136   24.336604 C.3        1 MOL1        -0.1685
       2    H1      19.578611   20.136694   25.260482 H          1 MOL1         0.0832
       3    H2      20.863031   19.117652   24.671241 H          1 MOL1         0.0832
       4    C2      20.555972   20.953210   23.511678 C.3        1 MOL1        -0.1685
       5    H3      20.338948   21.869079   24.078578 H          1 MOL1         0.0832
       6    H4      21.651474   20.914390   23.445182 H          1 MOL1         0.0832
       7    C3      19.955617   21.122806   22.092677 C.3        1 MOL1        -0.1685
       8    H5      20.260601   22.103318   21.702414 H          1 MOL1         0.0832
       9    H6      18.861972   21.180098   22.157708 H          1 MOL1         0.0832
      10    C4      20.363331   20.047559   21.047478 C.3        1 MOL1        -0.1761
      11    H7      19.606375   20.037469   20.252709 H          1 MOL1         0.0832
      12    H8      21.291857   20.372770   20.559551 H          1 MOL1         0.0832
      13    C5      20.578370   18.594487   21.537886 C.3        1 MOL1         0.1218
      14    H9      20.631993   17.959644   20.641854 H          1 MOL1         0.0789
      15    C6      19.467361   18.004733   22.441209 C.3        1 MOL1        -0.1761
      16    H10     18.604589   17.752972   21.811145 H          1 MOL1         0.0832
      17    H11     19.832273   17.044832   22.830346 H          1 MOL1         0.0832
      18    C7      18.962439   18.858980   23.637084 C.3        1 MOL1        -0.1685
      19    H12     18.115941   19.479446   23.317664 H          1 MOL1         0.0832
      20    H13     18.536650   18.174153   24.383033 H          1 MOL1         0.0832
      21    O1      21.830839   18.494943   22.197169 O.3        1 MOL1        -0.5509
      22    H14     21.732210   19.072530   22.980495 H          1 MOL1         0.3779
@<TRIPOS>BOND
    1     1     2    1
    2     1     3    1
    3     1     4    1
    4     4     5    1
    5     4     6    1
    6     4     7    1
    7     7     8    1
    8     7     9    1
    9     7    10    1
   10    10    11    1
   11    10    12    1
   12    10    13    1
   13    13    14    1
   14    13    15    1
   15    15    16    1
   16    15    17    1
   17     1    18    1
   18    15    18    1
   19    18    19    1
   20    18    20    1
   21    13    21    1
   22    21    22    1
@<TRIPOS>SUBSTRUCTURE
       1 MOL1            1 RESIDUE      1      MOL     
@<SCITEGIC>MOL_PROPERTY
VConf Rank
SciTegic.value.IntegerValue
384

@<SCITEGIC>MOL_PROPERTY
Conf_Id
SciTegic.value.IntegerValue
98

@<SCITEGIC>MOL_PROPERTY
Delta U+W
SciTegic.value.DoubleValue
0.930

@<SCITEGIC>MOL_PROPERTY
U+W
SciTegic.value.DoubleValue
7.353

@<SCITEGIC>MOL_PROPERTY
Grad RMS
SciTegic.value.DoubleValue
0.000000

@<SCITEGIC>MOL_PROPERTY
U
SciTegic.value.DoubleValue
8.455

@<SCITEGIC>MOL_PROPERTY
W
SciTegic.value.DoubleValue
-1.102

@<SCITEGIC>MOL_PROPERTY
W(PB)
SciTegic.value.DoubleValue
-3.101

@<SCITEGIC>MOL_PROPERTY
W(SA)
SciTegic.value.DoubleValue
2.000

@<SCITEGIC>MOL_PROPERTY
Valence
SciTegic.value.DoubleValue
15.601

@<SCITEGIC>MOL_PROPERTY
Coulomb
SciTegic.value.DoubleValue
-10.573

@<SCITEGIC>MOL_PROPERTY
VdW
SciTegic.value.DoubleValue
3.427

@<SCITEGIC>MOL_PROPERTY
VdW6
SciTegic.value.DoubleValue
-11.360

@<SCITEGIC>MOL_PROPERTY
VdW12
SciTegic.value.DoubleValue
14.787

@<SCITEGIC>MOL_PROPERTY
Bond
SciTegic.value.DoubleValue
0.471

@<SCITEGIC>MOL_PROPERTY
Angle
SciTegic.value.DoubleValue
5.445

@<SCITEGIC>MOL_PROPERTY
Pdih
SciTegic.value.DoubleValue
9.685

@<SCITEGIC>MOL_PROPERTY
Idih
SciTegic.value.DoubleValue
0.000

@<SCITEGIC>MOL_PROPERTY
Tether
SciTegic.value.DoubleValue
0.000

@<TRIPOS>MOLECULE
guest-5_confgen4.mol2 : confsearch ligand conformer 385
          22          22           1
SMALL
USER_CHARGES
 
@<TRIPOS>ATOM
       1    C1      20.388316   18.356500   23.850526 C.3        1 MOL1        -0.1685
       2    H1      21.251168   18.077362   23.232182 H          1 MOL1         0.0832
       3    H2      20.464491   17.726627   24.747281 H          1 MOL1         0.0832
       4    C2      19.074957   18.001163   23.108244 C.3        1 MOL1        -0.1685
       5    H3      19.087996   16.920287   22.912258 H          1 MOL1         0.0832
       6    H4      18.218331   18.172360   23.774208 H          1 MOL1         0.0832
       7    C3      18.828241   18.733938   21.760350 C.3        1 MOL1        -0.1685
       8    H5      18.087029   19.532181   21.896098 H          1 MOL1         0.0832
       9    H6      18.356338   18.025038   21.066519 H          1 MOL1         0.0832
      10    C4      20.098921   19.317045   21.087246 C.3        1 MOL1        -0.1761
      11    H7      20.859721   18.530171   21.012158 H          1 MOL1         0.0832
      12    H8      19.852753   19.570900   20.047368 H          1 MOL1         0.0832
      13    C5      20.721641   20.566134   21.777077 C.3        1 MOL1         0.1218
      14    H9      21.808103   20.410262   21.843193 H          1 MOL1         0.0789
      15    C6      20.192718   20.889543   23.196903 C.3        1 MOL1        -0.1761
      16    H10     20.612750   21.850085   23.522464 H          1 MOL1         0.0832
      17    H11     19.108637   21.050569   23.159120 H          1 MOL1         0.0832
      18    C7      20.520499   19.835498   24.283805 C.3        1 MOL1        -0.1685
      19    H12     21.547896   19.997317   24.637478 H          1 MOL1         0.0832
      20    H13     19.871251   20.016297   25.151251 H          1 MOL1         0.0832
      21    O1      20.471674   21.703873   20.959616 O.3        1 MOL1        -0.5509
      22    H14     20.921823   22.462654   21.385992 H          1 MOL1         0.3779
@<TRIPOS>BOND
    1     1     2    1
    2     1     3    1
    3     1     4    1
    4     4     5    1
    5     4     6    1
    6     4     7    1
    7     7     8    1
    8     7     9    1
    9     7    10    1
   10    10    11    1
   11    10    12    1
   12    10    13    1
   13    13    14    1
   14    13    15    1
   15    15    16    1
   16    15    17    1
   17     1    18    1
   18    15    18    1
   19    18    19    1
   20    18    20    1
   21    13    21    1
   22    21    22    1
@<TRIPOS>SUBSTRUCTURE
       1 MOL1            1 RESIDUE      1      MOL     
@<SCITEGIC>MOL_PROPERTY
VConf Rank
SciTegic.value.IntegerValue
385

@<SCITEGIC>MOL_PROPERTY
Conf_Id
SciTegic.value.IntegerValue
141

@<SCITEGIC>MOL_PROPERTY
Delta U+W
SciTegic.value.DoubleValue
0.000

@<SCITEGIC>MOL_PROPERTY
U+W
SciTegic.value.DoubleValue
6.423

@<SCITEGIC>MOL_PROPERTY
Grad RMS
SciTegic.value.DoubleValue
0.000000

@<SCITEGIC>MOL_PROPERTY
U
SciTegic.value.DoubleValue
8.781

@<SCITEGIC>MOL_PROPERTY
W
SciTegic.value.DoubleValue
-2.358

@<SCITEGIC>MOL_PROPERTY
W(PB)
SciTegic.value.DoubleValue
-4.373

@<SCITEGIC>MOL_PROPERTY
W(SA)
SciTegic.value.DoubleValue
2.015

@<SCITEGIC>MOL_PROPERTY
Valence
SciTegic.value.DoubleValue
13.328

@<SCITEGIC>MOL_PROPERTY
Coulomb
SciTegic.value.DoubleValue
-8.387

@<SCITEGIC>MOL_PROPERTY
VdW
SciTegic.value.DoubleValue
3.840

@<SCITEGIC>MOL_PROPERTY
VdW6
SciTegic.value.DoubleValue
-9.744

@<SCITEGIC>MOL_PROPERTY
VdW12
SciTegic.value.DoubleValue
13.584

@<SCITEGIC>MOL_PROPERTY
Bond
SciTegic.value.DoubleValue
0.436

@<SCITEGIC>MOL_PROPERTY
Angle
SciTegic.value.DoubleValue
3.478

@<SCITEGIC>MOL_PROPERTY
Pdih
SciTegic.value.DoubleValue
9.415

@<SCITEGIC>MOL_PROPERTY
Idih
SciTegic.value.DoubleValue
0.000

@<SCITEGIC>MOL_PROPERTY
Tether
SciTegic.value.DoubleValue
0.000

@<TRIPOS>MOLECULE
guest-5_confgen4.mol2 : confsearch ligand conformer 386
          22          22           1
SMALL
USER_CHARGES
 
@<TRIPOS>ATOM
       1    C1      20.752976   18.449157   21.600695 C.3        1 MOL1        -0.1685
       2    H1      20.705594   19.190294   20.791326 H          1 MOL1         0.0832
       3    H2      21.277451   17.578157   21.184534 H          1 MOL1         0.0832
       4    C2      19.334018   17.989485   22.014110 C.3        1 MOL1        -0.1685
       5    H3      18.901543   17.405389   21.190307 H          1 MOL1         0.0832
       6    H4      19.408662   17.297073   22.863741 H          1 MOL1         0.0832
       7    C3      18.348989   19.127645   22.367156 C.3        1 MOL1        -0.1685
       8    H5      17.408073   18.673241   22.706302 H          1 MOL1         0.0832
       9    H6      18.099219   19.689512   21.456727 H          1 MOL1         0.0832
      10    C4      18.845790   20.107732   23.457935 C.3        1 MOL1        -0.1761
      11    H7      17.986455   20.711605   23.777883 H          1 MOL1         0.0832
      12    H8      19.181751   19.559203   24.347453 H          1 MOL1         0.0832
      13    C5      19.960096   21.050210   22.950308 C.3        1 MOL1         0.1218
      14    H9      19.778871   21.255168   21.885417 H          1 MOL1         0.0789
      15    C6      21.392686   20.489131   23.099210 C.3        1 MOL1        -0.1761
      16    H10     22.046505   21.070001   22.435914 H          1 MOL1         0.0832
      17    H11     21.753296   20.679409   24.118948 H          1 MOL1         0.0832
      18    C7      21.583445   18.982863   22.791293 C.3        1 MOL1        -0.1685
      19    H12     22.649262   18.810175   22.588716 H          1 MOL1         0.0832
      20    H13     21.355548   18.392543   23.689233 H          1 MOL1         0.0832
      21    O1      19.888969   22.274207   23.671412 O.3        1 MOL1        -0.5509
      22    H14     18.999859   22.650307   23.502149 H          1 MOL1         0.3779
@<TRIPOS>BOND
    1     1     2    1
    2     1     3    1
    3     1     4    1
    4     4     5    1
    5     4     6    1
    6     4     7    1
    7     7     8    1
    8     7     9    1
    9     7    10    1
   10    10    11    1
   11    10    12    1
   12    10    13    1
   13    13    14    1
   14    13    15    1
   15    15    16    1
   16    15    17    1
   17     1    18    1
   18    15    18    1
   19    18    19    1
   20    18    20    1
   21    13    21    1
   22    21    22    1
@<TRIPOS>SUBSTRUCTURE
       1 MOL1            1 RESIDUE      1      MOL     
@<SCITEGIC>MOL_PROPERTY
VConf Rank
SciTegic.value.IntegerValue
386

@<SCITEGIC>MOL_PROPERTY
Conf_Id
SciTegic.value.IntegerValue
144

@<SCITEGIC>MOL_PROPERTY
Delta U+W
SciTegic.value.DoubleValue
-3.291

@<SCITEGIC>MOL_PROPERTY
U+W
SciTegic.value.DoubleValue
3.132

@<SCITEGIC>MOL_PROPERTY
Grad RMS
SciTegic.value.DoubleValue
0.000000

@<SCITEGIC>MOL_PROPERTY
U
SciTegic.value.DoubleValue
5.411

@<SCITEGIC>MOL_PROPERTY
W
SciTegic.value.DoubleValue
-2.279

@<SCITEGIC>MOL_PROPERTY
W(PB)
SciTegic.value.DoubleValue
-4.300

@<SCITEGIC>MOL_PROPERTY
W(SA)
SciTegic.value.DoubleValue
2.021

@<SCITEGIC>MOL_PROPERTY
Valence
SciTegic.value.DoubleValue
11.909

@<SCITEGIC>MOL_PROPERTY
Coulomb
SciTegic.value.DoubleValue
-8.733

@<SCITEGIC>MOL_PROPERTY
VdW
SciTegic.value.DoubleValue
2.236

@<SCITEGIC>MOL_PROPERTY
VdW6
SciTegic.value.DoubleValue
-8.936

@<SCITEGIC>MOL_PROPERTY
VdW12
SciTegic.value.DoubleValue
11.172

@<SCITEGIC>MOL_PROPERTY
Bond
SciTegic.value.DoubleValue
0.223

@<SCITEGIC>MOL_PROPERTY
Angle
SciTegic.value.DoubleValue
2.457

@<SCITEGIC>MOL_PROPERTY
Pdih
SciTegic.value.DoubleValue
9.228

@<SCITEGIC>MOL_PROPERTY
Idih
SciTegic.value.DoubleValue
0.000

@<SCITEGIC>MOL_PROPERTY
Tether
SciTegic.value.DoubleValue
0.000

@<TRIPOS>MOLECULE
guest-5_confgen4.mol2 : confsearch ligand conformer 387
          22          22           1
SMALL
USER_CHARGES
 
@<TRIPOS>ATOM
       1    C1      18.580961   20.197193   23.514490 C.3        1 MOL1        -0.1685
       2    H1      17.736197   20.813664   23.850986 H          1 MOL1         0.0832
       3    H2      18.634787   19.349316   24.210830 H          1 MOL1         0.0832
       4    C2      19.863240   21.058262   23.594458 C.3        1 MOL1        -0.1685
       5    H3      19.940043   21.684077   22.694885 H          1 MOL1         0.0832
       6    H4      19.767298   21.761544   24.433021 H          1 MOL1         0.0832
       7    C3      21.177014   20.262862   23.787488 C.3        1 MOL1        -0.1685
       8    H5      21.309885   20.046192   24.856279 H          1 MOL1         0.0832
       9    H6      22.016085   20.915095   23.508975 H          1 MOL1         0.0832
      10    C4      21.293942   18.930287   23.007287 C.3        1 MOL1        -0.1761
      11    H7      22.356926   18.656490   22.967679 H          1 MOL1         0.0832
      12    H8      20.802419   18.133087   23.579800 H          1 MOL1         0.0832
      13    C5      20.715807   18.961270   21.574669 C.3        1 MOL1         0.1218
      14    H9      20.876273   19.955629   21.134249 H          1 MOL1         0.0789
      15    C6      19.210285   18.613627   21.535614 C.3        1 MOL1        -0.1761
      16    H10     18.924487   18.404592   20.496020 H          1 MOL1         0.0832
      17    H11     19.034583   17.683368   22.091341 H          1 MOL1         0.0832
      18    C7      18.267719   19.714131   22.077994 C.3        1 MOL1        -0.1685
      19    H12     18.279509   20.573325   21.393471 H          1 MOL1         0.0832
      20    H13     17.239763   19.327400   22.054892 H          1 MOL1         0.0832
      21    O1      21.406852   17.996018   20.793032 O.3        1 MOL1        -0.5509
      22    H14     21.242001   17.128198   21.215966 H          1 MOL1         0.3779
@<TRIPOS>BOND
    1     1     2    1
    2     1     3    1
    3     1     4    1
    4     4     5    1
    5     4     6    1
    6     4     7    1
    7     7     8    1
    8     7     9    1
    9     7    10    1
   10    10    11    1
   11    10    12    1
   12    10    13    1
   13    13    14    1
   14    13    15    1
   15    15    16    1
   16    15    17    1
   17     1    18    1
   18    15    18    1
   19    18    19    1
   20    18    20    1
   21    13    21    1
   22    21    22    1
@<TRIPOS>SUBSTRUCTURE
       1 MOL1            1 RESIDUE      1      MOL     
@<SCITEGIC>MOL_PROPERTY
VConf Rank
SciTegic.value.IntegerValue
387

@<SCITEGIC>MOL_PROPERTY
Conf_Id
SciTegic.value.IntegerValue
76

@<SCITEGIC>MOL_PROPERTY
Delta U+W
SciTegic.value.DoubleValue
-3.175

@<SCITEGIC>MOL_PROPERTY
U+W
SciTegic.value.DoubleValue
3.248

@<SCITEGIC>MOL_PROPERTY
Grad RMS
SciTegic.value.DoubleValue
0.000000

@<SCITEGIC>MOL_PROPERTY
U
SciTegic.value.DoubleValue
5.336

@<SCITEGIC>MOL_PROPERTY
W
SciTegic.value.DoubleValue
-2.088

@<SCITEGIC>MOL_PROPERTY
W(PB)
SciTegic.value.DoubleValue
-4.098

@<SCITEGIC>MOL_PROPERTY
W(SA)
SciTegic.value.DoubleValue
2.010

@<SCITEGIC>MOL_PROPERTY
Valence
SciTegic.value.DoubleValue
12.390

@<SCITEGIC>MOL_PROPERTY
Coulomb
SciTegic.value.DoubleValue
-9.270

@<SCITEGIC>MOL_PROPERTY
VdW
SciTegic.value.DoubleValue
2.216

@<SCITEGIC>MOL_PROPERTY
VdW6
SciTegic.value.DoubleValue
-8.967

@<SCITEGIC>MOL_PROPERTY
VdW12
SciTegic.value.DoubleValue
11.183

@<SCITEGIC>MOL_PROPERTY
Bond
SciTegic.value.DoubleValue
0.218

@<SCITEGIC>MOL_PROPERTY
Angle
SciTegic.value.DoubleValue
2.426

@<SCITEGIC>MOL_PROPERTY
Pdih
SciTegic.value.DoubleValue
9.745

@<SCITEGIC>MOL_PROPERTY
Idih
SciTegic.value.DoubleValue
0.000

@<SCITEGIC>MOL_PROPERTY
Tether
SciTegic.value.DoubleValue
0.000

@<TRIPOS>MOLECULE
guest-5_confgen4.mol2 : confsearch ligand conformer 388
          22          22           1
SMALL
USER_CHARGES
 
@<TRIPOS>ATOM
       1    C1      20.300663   19.190093   20.863353 C.3        1 MOL1        -0.1685
       2    H1      19.699497   18.514054   20.240175 H          1 MOL1         0.0832
       3    H2      21.014565   19.669681   20.179866 H          1 MOL1         0.0832
       4    C2      21.084286   18.335214   21.887946 C.3        1 MOL1        -0.1685
       5    H3      20.462193   17.490047   22.212247 H          1 MOL1         0.0832
       6    H4      21.942420   17.886166   21.369540 H          1 MOL1         0.0832
       7    C3      21.593744   19.104912   23.128737 C.3        1 MOL1        -0.1685
       8    H5      21.921252   20.117603   22.856652 H          1 MOL1         0.0832
       9    H6      22.485411   18.588043   23.508301 H          1 MOL1         0.0832
      10    C4      20.551835   19.152022   24.275160 C.3        1 MOL1        -0.1761
      11    H7      20.190165   18.135466   24.475959 H          1 MOL1         0.0832
      12    H8      21.057932   19.471922   25.195456 H          1 MOL1         0.0832
      13    C5      19.334641   20.078704   24.054262 C.3        1 MOL1         0.1218
      14    H9      18.618588   19.858827   24.859259 H          1 MOL1         0.0789
      15    C6      18.587537   19.876878   22.712029 C.3        1 MOL1        -0.1761
      16    H10     18.257239   18.833852   22.623270 H          1 MOL1         0.0832
      17    H11     17.668587   20.475854   22.751346 H          1 MOL1         0.0832
      18    C7      19.382690   20.290784   21.446474 C.3        1 MOL1        -0.1685
      19    H12     18.671702   20.586529   20.663241 H          1 MOL1         0.0832
      20    H13     19.978102   21.189844   21.652912 H          1 MOL1         0.0832
      21    O1      19.747052   21.435398   24.185882 O.3        1 MOL1        -0.5509
      22    H14     18.962118   21.985915   23.988162 H          1 MOL1         0.3779
@<TRIPOS>BOND
    1     1     2    1
    2     1     3    1
    3     1     4    1
    4     4     5    1
    5     4     6    1
    6     4     7    1
    7     7     8    1
    8     7     9    1
    9     7    10    1
   10    10    11    1
   11    10    12    1
   12    10    13    1
   13    13    14    1
   14    13    15    1
   15    15    16    1
   16    15    17    1
   17     1    18    1
   18    15    18    1
   19    18    19    1
   20    18    20    1
   21    13    21    1
   22    21    22    1
@<TRIPOS>SUBSTRUCTURE
       1 MOL1            1 RESIDUE      1      MOL     
@<SCITEGIC>MOL_PROPERTY
VConf Rank
SciTegic.value.IntegerValue
388

@<SCITEGIC>MOL_PROPERTY
Conf_Id
SciTegic.value.IntegerValue
95

@<SCITEGIC>MOL_PROPERTY
Delta U+W
SciTegic.value.DoubleValue
-2.289

@<SCITEGIC>MOL_PROPERTY
U+W
SciTegic.value.DoubleValue
4.134

@<SCITEGIC>MOL_PROPERTY
Grad RMS
SciTegic.value.DoubleValue
0.000000

@<SCITEGIC>MOL_PROPERTY
U
SciTegic.value.DoubleValue
6.373

@<SCITEGIC>MOL_PROPERTY
W
SciTegic.value.DoubleValue
-2.240

@<SCITEGIC>MOL_PROPERTY
W(PB)
SciTegic.value.DoubleValue
-4.254

@<SCITEGIC>MOL_PROPERTY
W(SA)
SciTegic.value.DoubleValue
2.015

@<SCITEGIC>MOL_PROPERTY
Valence
SciTegic.value.DoubleValue
12.093

@<SCITEGIC>MOL_PROPERTY
Coulomb
SciTegic.value.DoubleValue
-8.058

@<SCITEGIC>MOL_PROPERTY
VdW
SciTegic.value.DoubleValue
2.339

@<SCITEGIC>MOL_PROPERTY
VdW6
SciTegic.value.DoubleValue
-9.683

@<SCITEGIC>MOL_PROPERTY
VdW12
SciTegic.value.DoubleValue
12.022

@<SCITEGIC>MOL_PROPERTY
Bond
SciTegic.value.DoubleValue
0.268

@<SCITEGIC>MOL_PROPERTY
Angle
SciTegic.value.DoubleValue
3.005

@<SCITEGIC>MOL_PROPERTY
Pdih
SciTegic.value.DoubleValue
8.820

@<SCITEGIC>MOL_PROPERTY
Idih
SciTegic.value.DoubleValue
0.000

@<SCITEGIC>MOL_PROPERTY
Tether
SciTegic.value.DoubleValue
0.000

@<TRIPOS>MOLECULE
guest-5_confgen4.mol2 : confsearch ligand conformer 389
          22          22           1
SMALL
USER_CHARGES
 
@<TRIPOS>ATOM
       1    C1      19.571797   18.525379   24.194287 C.3        1 MOL1        -0.1685
       2    H1      19.069439   18.824182   25.124399 H          1 MOL1         0.0832
       3    H2      19.717441   17.439173   24.270022 H          1 MOL1         0.0832
       4    C2      20.956488   19.214525   24.149177 C.3        1 MOL1        -0.1685
       5    H3      20.880323   20.217937   24.589453 H          1 MOL1         0.0832
       6    H4      21.635115   18.655890   24.808109 H          1 MOL1         0.0832
       7    C3      21.592493   19.316116   22.743228 C.3        1 MOL1        -0.1685
       8    H5      21.383415   18.414789   22.151015 H          1 MOL1         0.0832
       9    H6      22.683392   19.354562   22.865237 H          1 MOL1         0.0832
      10    C4      21.157193   20.593395   21.981399 C.3        1 MOL1        -0.1761
      11    H7      21.299206   21.465616   22.632519 H          1 MOL1         0.0832
      12    H8      21.839870   20.747427   21.135699 H          1 MOL1         0.0832
      13    C5      19.707200   20.607116   21.445610 C.3        1 MOL1         0.1218
      14    H9      19.507680   21.630178   21.095415 H          1 MOL1         0.0789
      15    C6      18.616387   20.264115   22.490985 C.3        1 MOL1        -0.1761
      16    H10     18.678574   20.958225   23.338825 H          1 MOL1         0.0832
      17    H11     17.643787   20.453854   22.018886 H          1 MOL1         0.0832
      18    C7      18.627517   18.798887   22.999339 C.3        1 MOL1        -0.1685
      19    H12     17.608961   18.523886   23.304519 H          1 MOL1         0.0832
      20    H13     18.875918   18.119219   22.173525 H          1 MOL1         0.0832
      21    O1      19.608133   19.728712   20.328701 O.3        1 MOL1        -0.5509
      22    H14     20.326008   19.976632   19.711143 H          1 MOL1         0.3779
@<TRIPOS>BOND
    1     1     2    1
    2     1     3    1
    3     1     4    1
    4     4     5    1
    5     4     6    1
    6     4     7    1
    7     7     8    1
    8     7     9    1
    9     7    10    1
   10    10    11    1
   11    10    12    1
   12    10    13    1
   13    13    14    1
   14    13    15    1
   15    15    16    1
   16    15    17    1
   17     1    18    1
   18    15    18    1
   19    18    19    1
   20    18    20    1
   21    13    21    1
   22    21    22    1
@<TRIPOS>SUBSTRUCTURE
       1 MOL1            1 RESIDUE      1      MOL     
@<SCITEGIC>MOL_PROPERTY
VConf Rank
SciTegic.value.IntegerValue
389

@<SCITEGIC>MOL_PROPERTY
Conf_Id
SciTegic.value.IntegerValue
41

@<SCITEGIC>MOL_PROPERTY
Delta U+W
SciTegic.value.DoubleValue
-2.114

@<SCITEGIC>MOL_PROPERTY
U+W
SciTegic.value.DoubleValue
4.310

@<SCITEGIC>MOL_PROPERTY
Grad RMS
SciTegic.value.DoubleValue
0.000000

@<SCITEGIC>MOL_PROPERTY
U
SciTegic.value.DoubleValue
6.598

@<SCITEGIC>MOL_PROPERTY
W
SciTegic.value.DoubleValue
-2.289

@<SCITEGIC>MOL_PROPERTY
W(PB)
SciTegic.value.DoubleValue
-4.294

@<SCITEGIC>MOL_PROPERTY
W(SA)
SciTegic.value.DoubleValue
2.005

@<SCITEGIC>MOL_PROPERTY
Valence
SciTegic.value.DoubleValue
12.082

@<SCITEGIC>MOL_PROPERTY
Coulomb
SciTegic.value.DoubleValue
-7.801

@<SCITEGIC>MOL_PROPERTY
VdW
SciTegic.value.DoubleValue
2.317

@<SCITEGIC>MOL_PROPERTY
VdW6
SciTegic.value.DoubleValue
-9.658

@<SCITEGIC>MOL_PROPERTY
VdW12
SciTegic.value.DoubleValue
11.975

@<SCITEGIC>MOL_PROPERTY
Bond
SciTegic.value.DoubleValue
0.267

@<SCITEGIC>MOL_PROPERTY
Angle
SciTegic.value.DoubleValue
3.051

@<SCITEGIC>MOL_PROPERTY
Pdih
SciTegic.value.DoubleValue
8.764

@<SCITEGIC>MOL_PROPERTY
Idih
SciTegic.value.DoubleValue
0.000

@<SCITEGIC>MOL_PROPERTY
Tether
SciTegic.value.DoubleValue
0.000

@<TRIPOS>MOLECULE
guest-5_confgen4.mol2 : confsearch ligand conformer 390
          22          22           1
SMALL
USER_CHARGES
 
@<TRIPOS>ATOM
       1    C1      18.609694   19.180886   23.401123 C.3        1 MOL1        -0.1685
       2    H1      17.550786   18.974843   23.608027 H          1 MOL1         0.0832
       3    H2      19.175208   18.765467   24.246579 H          1 MOL1         0.0832
       4    C2      18.788063   20.713777   23.324852 C.3        1 MOL1        -0.1685
       5    H3      18.266976   21.100773   22.438690 H          1 MOL1         0.0832
       6    H4      18.288092   21.168608   24.190713 H          1 MOL1         0.0832
       7    C3      20.256665   21.191444   23.308581 C.3        1 MOL1        -0.1685
       8    H5      20.717482   20.989349   24.284642 H          1 MOL1         0.0832
       9    H6      20.255681   22.284760   23.204730 H          1 MOL1         0.0832
      10    C4      21.132352   20.593944   22.173966 C.3        1 MOL1        -0.1761
      11    H7      20.635236   20.726952   21.204717 H          1 MOL1         0.0832
      12    H8      22.053868   21.187478   22.118209 H          1 MOL1         0.0832
      13    C5      21.553645   19.112237   22.350282 C.3        1 MOL1         0.1218
      14    H9      22.399506   18.941688   21.668587 H          1 MOL1         0.0789
      15    C6      20.481302   18.055007   21.979490 C.3        1 MOL1        -0.1761
      16    H10     20.663127   17.736687   20.944756 H          1 MOL1         0.0832
      17    H11     20.639482   17.155880   22.589425 H          1 MOL1         0.0832
      18    C7      18.992602   18.469258   22.084693 C.3        1 MOL1        -0.1685
      19    H12     18.719506   19.100091   21.228024 H          1 MOL1         0.0832
      20    H13     18.383549   17.560329   21.986819 H          1 MOL1         0.0832
      21    O1      22.016742   18.880421   23.677958 O.3        1 MOL1        -0.5509
      22    H14     22.304320   17.945750   23.717946 H          1 MOL1         0.3779
@<TRIPOS>BOND
    1     1     2    1
    2     1     3    1
    3     1     4    1
    4     4     5    1
    5     4     6    1
    6     4     7    1
    7     7     8    1
    8     7     9    1
    9     7    10    1
   10    10    11    1
   11    10    12    1
   12    10    13    1
   13    13    14    1
   14    13    15    1
   15    15    16    1
   16    15    17    1
   17     1    18    1
   18    15    18    1
   19    18    19    1
   20    18    20    1
   21    13    21    1
   22    21    22    1
@<TRIPOS>SUBSTRUCTURE
       1 MOL1            1 RESIDUE      1      MOL     
@<SCITEGIC>MOL_PROPERTY
VConf Rank
SciTegic.value.IntegerValue
390

@<SCITEGIC>MOL_PROPERTY
Conf_Id
SciTegic.value.IntegerValue
104

@<SCITEGIC>MOL_PROPERTY
Delta U+W
SciTegic.value.DoubleValue
-1.172

@<SCITEGIC>MOL_PROPERTY
U+W
SciTegic.value.DoubleValue
5.252

@<SCITEGIC>MOL_PROPERTY
Grad RMS
SciTegic.value.DoubleValue
0.000000

@<SCITEGIC>MOL_PROPERTY
U
SciTegic.value.DoubleValue
7.482

@<SCITEGIC>MOL_PROPERTY
W
SciTegic.value.DoubleValue
-2.230

@<SCITEGIC>MOL_PROPERTY
W(PB)
SciTegic.value.DoubleValue
-4.220

@<SCITEGIC>MOL_PROPERTY
W(SA)
SciTegic.value.DoubleValue
1.990

@<SCITEGIC>MOL_PROPERTY
Valence
SciTegic.value.DoubleValue
12.309

@<SCITEGIC>MOL_PROPERTY
Coulomb
SciTegic.value.DoubleValue
-7.084

@<SCITEGIC>MOL_PROPERTY
VdW
SciTegic.value.DoubleValue
2.258

@<SCITEGIC>MOL_PROPERTY
VdW6
SciTegic.value.DoubleValue
-9.770

@<SCITEGIC>MOL_PROPERTY
VdW12
SciTegic.value.DoubleValue
12.028

@<SCITEGIC>MOL_PROPERTY
Bond
SciTegic.value.DoubleValue
0.284

@<SCITEGIC>MOL_PROPERTY
Angle
SciTegic.value.DoubleValue
3.491

@<SCITEGIC>MOL_PROPERTY
Pdih
SciTegic.value.DoubleValue
8.535

@<SCITEGIC>MOL_PROPERTY
Idih
SciTegic.value.DoubleValue
0.000

@<SCITEGIC>MOL_PROPERTY
Tether
SciTegic.value.DoubleValue
0.000

@<TRIPOS>MOLECULE
guest-5_confgen4.mol2 : confsearch ligand conformer 391
          22          22           1
SMALL
USER_CHARGES
 
@<TRIPOS>ATOM
       1    C1      20.989542   18.559044   23.558307 C.3        1 MOL1        -0.1685
       2    H1      20.361254   18.665747   24.452931 H          1 MOL1         0.0832
       3    H2      21.807128   17.882378   23.842234 H          1 MOL1         0.0832
       4    C2      21.615278   19.914696   23.158121 C.3        1 MOL1        -0.1685
       5    H3      22.479487   20.107316   23.808729 H          1 MOL1         0.0832
       6    H4      22.033569   19.837487   22.145991 H          1 MOL1         0.0832
       7    C3      20.673387   21.141987   23.249075 C.3        1 MOL1        -0.1685
       8    H5      21.035615   21.910750   22.552578 H          1 MOL1         0.0832
       9    H6      20.775008   21.584490   24.249471 H          1 MOL1         0.0832
      10    C4      19.160688   20.898247   22.997011 C.3        1 MOL1        -0.1761
      11    H7      18.710540   20.470066   23.901987 H          1 MOL1         0.0832
      12    H8      18.676701   21.875253   22.869663 H          1 MOL1         0.0832
      13    C5      18.781717   20.013068   21.787540 C.3        1 MOL1         0.1218
      14    H9      17.744878   20.257656   21.515469 H          1 MOL1         0.0789
      15    C6      18.813189   18.503198   22.115522 C.3        1 MOL1        -0.1761
      16    H10     18.154898   18.316084   22.973836 H          1 MOL1         0.0832
      17    H11     18.362758   17.960829   21.273980 H          1 MOL1         0.0832
      18    C7      20.204328   17.887674   22.406473 C.3        1 MOL1        -0.1685
      19    H12     20.057189   16.829139   22.660566 H          1 MOL1         0.0832
      20    H13     20.811287   17.889592   21.491008 H          1 MOL1         0.0832
      21    O1      19.626735   20.291308   20.681784 O.3        1 MOL1        -0.5509
      22    H14     20.528533   20.131514   21.024583 H          1 MOL1         0.3779
@<TRIPOS>BOND
    1     1     2    1
    2     1     3    1
    3     1     4    1
    4     4     5    1
    5     4     6    1
    6     4     7    1
    7     7     8    1
    8     7     9    1
    9     7    10    1
   10    10    11    1
   11    10    12    1
   12    10    13    1
   13    13    14    1
   14    13    15    1
   15    15    16    1
   16    15    17    1
   17     1    18    1
   18    15    18    1
   19    18    19    1
   20    18    20    1
   21    13    21    1
   22    21    22    1
@<TRIPOS>SUBSTRUCTURE
       1 MOL1            1 RESIDUE      1      MOL     
@<SCITEGIC>MOL_PROPERTY
VConf Rank
SciTegic.value.IntegerValue
391

@<SCITEGIC>MOL_PROPERTY
Conf_Id
SciTegic.value.IntegerValue
99

@<SCITEGIC>MOL_PROPERTY
Delta U+W
SciTegic.value.DoubleValue
-3.852

@<SCITEGIC>MOL_PROPERTY
U+W
SciTegic.value.DoubleValue
2.572

@<SCITEGIC>MOL_PROPERTY
Grad RMS
SciTegic.value.DoubleValue
0.000000

@<SCITEGIC>MOL_PROPERTY
U
SciTegic.value.DoubleValue
3.922

@<SCITEGIC>MOL_PROPERTY
W
SciTegic.value.DoubleValue
-1.350

@<SCITEGIC>MOL_PROPERTY
W(PB)
SciTegic.value.DoubleValue
-3.345

@<SCITEGIC>MOL_PROPERTY
W(SA)
SciTegic.value.DoubleValue
1.995

@<SCITEGIC>MOL_PROPERTY
Valence
SciTegic.value.DoubleValue
12.571

@<SCITEGIC>MOL_PROPERTY
Coulomb
SciTegic.value.DoubleValue
-10.581

@<SCITEGIC>MOL_PROPERTY
VdW
SciTegic.value.DoubleValue
1.932

@<SCITEGIC>MOL_PROPERTY
VdW6
SciTegic.value.DoubleValue
-10.483

@<SCITEGIC>MOL_PROPERTY
VdW12
SciTegic.value.DoubleValue
12.415

@<SCITEGIC>MOL_PROPERTY
Bond
SciTegic.value.DoubleValue
0.268

@<SCITEGIC>MOL_PROPERTY
Angle
SciTegic.value.DoubleValue
3.728

@<SCITEGIC>MOL_PROPERTY
Pdih
SciTegic.value.DoubleValue
8.575

@<SCITEGIC>MOL_PROPERTY
Idih
SciTegic.value.DoubleValue
0.000

@<SCITEGIC>MOL_PROPERTY
Tether
SciTegic.value.DoubleValue
0.000

@<TRIPOS>MOLECULE
guest-5_confgen4.mol2 : confsearch ligand conformer 392
          22          22           1
SMALL
USER_CHARGES
 
@<TRIPOS>ATOM
       1    C1      19.980613   20.737615   23.885151 C.3        1 MOL1        -0.1685
       2    H1      19.666354   21.066872   24.885213 H          1 MOL1         0.0832
       3    H2      20.524777   21.593246   23.463444 H          1 MOL1         0.0832
       4    C2      18.697211   20.454041   23.050695 C.3        1 MOL1        -0.1685
       5    H3      17.827458   20.660715   23.689526 H          1 MOL1         0.0832
       6    H4      18.617579   21.171726   22.223265 H          1 MOL1         0.0832
       7    C3      18.548509   19.011688   22.502738 C.3        1 MOL1        -0.1685
       8    H5      17.529608   18.893857   22.109443 H          1 MOL1         0.0832
       9    H6      18.609541   18.293288   23.329627 H          1 MOL1         0.0832
      10    C4      19.541682   18.603966   21.379262 C.3        1 MOL1        -0.1761
      11    H7      19.607441   17.508490   21.360605 H          1 MOL1         0.0832
      12    H8      19.104940   18.884829   20.411600 H          1 MOL1         0.0832
      13    C5      20.978201   19.180373   21.427494 C.3        1 MOL1         0.1218
      14    H9      21.575815   18.609732   20.702235 H          1 MOL1         0.0789
      15    C6      21.710041   19.083360   22.788796 C.3        1 MOL1        -0.1761
      16    H10     22.032297   18.044595   22.936640 H          1 MOL1         0.0832
      17    H11     22.637388   19.666028   22.708034 H          1 MOL1         0.0832
      18    C7      20.951475   19.542677   24.064887 C.3        1 MOL1        -0.1685
      19    H12     20.414703   18.692054   24.502935 H          1 MOL1         0.0832
      20    H13     21.700289   19.815416   24.820940 H          1 MOL1         0.0832
      21    O1      20.964681   20.529851   20.989353 O.3        1 MOL1        -0.5509
      22    H14     20.425267   20.991483   21.662303 H          1 MOL1         0.3779
@<TRIPOS>BOND
    1     1     2    1
    2     1     3    1
    3     1     4    1
    4     4     5    1
    5     4     6    1
    6     4     7    1
    7     7     8    1
    8     7     9    1
    9     7    10    1
   10    10    11    1
   11    10    12    1
   12    10    13    1
   13    13    14    1
   14    13    15    1
   15    15    16    1
   16    15    17    1
   17     1    18    1
   18    15    18    1
   19    18    19    1
   20    18    20    1
   21    13    21    1
   22    21    22    1
@<TRIPOS>SUBSTRUCTURE
       1 MOL1            1 RESIDUE      1      MOL     
@<SCITEGIC>MOL_PROPERTY
VConf Rank
SciTegic.value.IntegerValue
392

@<SCITEGIC>MOL_PROPERTY
Conf_Id
SciTegic.value.IntegerValue
98

@<SCITEGIC>MOL_PROPERTY
Delta U+W
SciTegic.value.DoubleValue
0.930

@<SCITEGIC>MOL_PROPERTY
U+W
SciTegic.value.DoubleValue
7.353

@<SCITEGIC>MOL_PROPERTY
Grad RMS
SciTegic.value.DoubleValue
0.000000

@<SCITEGIC>MOL_PROPERTY
U
SciTegic.value.DoubleValue
8.455

@<SCITEGIC>MOL_PROPERTY
W
SciTegic.value.DoubleValue
-1.102

@<SCITEGIC>MOL_PROPERTY
W(PB)
SciTegic.value.DoubleValue
-3.101

@<SCITEGIC>MOL_PROPERTY
W(SA)
SciTegic.value.DoubleValue
2.000

@<SCITEGIC>MOL_PROPERTY
Valence
SciTegic.value.DoubleValue
15.601

@<SCITEGIC>MOL_PROPERTY
Coulomb
SciTegic.value.DoubleValue
-10.573

@<SCITEGIC>MOL_PROPERTY
VdW
SciTegic.value.DoubleValue
3.427

@<SCITEGIC>MOL_PROPERTY
VdW6
SciTegic.value.DoubleValue
-11.360

@<SCITEGIC>MOL_PROPERTY
VdW12
SciTegic.value.DoubleValue
14.787

@<SCITEGIC>MOL_PROPERTY
Bond
SciTegic.value.DoubleValue
0.471

@<SCITEGIC>MOL_PROPERTY
Angle
SciTegic.value.DoubleValue
5.445

@<SCITEGIC>MOL_PROPERTY
Pdih
SciTegic.value.DoubleValue
9.685

@<SCITEGIC>MOL_PROPERTY
Idih
SciTegic.value.DoubleValue
0.000

@<SCITEGIC>MOL_PROPERTY
Tether
SciTegic.value.DoubleValue
0.000

@<TRIPOS>MOLECULE
guest-5_confgen4.mol2 : confsearch ligand conformer 393
          22          22           1
SMALL
USER_CHARGES
 
@<TRIPOS>ATOM
       1    C1      19.080222   19.434022   21.216598 C.3        1 MOL1        -0.1685
       2    H1      19.129841   20.529542   21.170159 H          1 MOL1         0.0832
       3    H2      18.538539   19.134420   20.309112 H          1 MOL1         0.0832
       4    C2      18.251526   18.999004   22.451985 C.3        1 MOL1        -0.1685
       5    H3      17.249082   19.436310   22.348327 H          1 MOL1         0.0832
       6    H4      18.104757   17.910580   22.431571 H          1 MOL1         0.0832
       7    C3      18.818035   19.411895   23.838791 C.3        1 MOL1        -0.1685
       8    H5      19.287434   18.547488   24.326109 H          1 MOL1         0.0832
       9    H6      17.973190   19.678262   24.488345 H          1 MOL1         0.0832
      10    C4      19.818551   20.597656   23.813315 C.3        1 MOL1        -0.1761
      11    H7      19.367988   21.437101   23.269301 H          1 MOL1         0.0832
      12    H8      19.945638   20.963834   24.841007 H          1 MOL1         0.0832
      13    C5      21.220893   20.291420   23.210383 C.3        1 MOL1         0.1218
      14    H9      21.479346   21.108632   22.521592 H          1 MOL1         0.0789
      15    C6      21.349545   18.952609   22.441427 C.3        1 MOL1        -0.1761
      16    H10     22.402694   18.795907   22.174260 H          1 MOL1         0.0832
      17    H11     21.097240   18.118722   23.107433 H          1 MOL1         0.0832
      18    C7      20.510217   18.848862   21.143516 C.3        1 MOL1        -0.1685
      19    H12     21.046755   19.358486   20.331590 H          1 MOL1         0.0832
      20    H13     20.452529   17.791979   20.849675 H          1 MOL1         0.0832
      21    O1      22.171317   20.267886   24.269306 O.3        1 MOL1        -0.5509
      22    H14     23.049916   20.131186   23.857535 H          1 MOL1         0.3779
@<TRIPOS>BOND
    1     1     2    1
    2     1     3    1
    3     1     4    1
    4     4     5    1
    5     4     6    1
    6     4     7    1
    7     7     8    1
    8     7     9    1
    9     7    10    1
   10    10    11    1
   11    10    12    1
   12    10    13    1
   13    13    14    1
   14    13    15    1
   15    15    16    1
   16    15    17    1
   17     1    18    1
   18    15    18    1
   19    18    19    1
   20    18    20    1
   21    13    21    1
   22    21    22    1
@<TRIPOS>SUBSTRUCTURE
       1 MOL1            1 RESIDUE      1      MOL     
@<SCITEGIC>MOL_PROPERTY
VConf Rank
SciTegic.value.IntegerValue
393

@<SCITEGIC>MOL_PROPERTY
Conf_Id
SciTegic.value.IntegerValue
141

@<SCITEGIC>MOL_PROPERTY
Delta U+W
SciTegic.value.DoubleValue
0.000

@<SCITEGIC>MOL_PROPERTY
U+W
SciTegic.value.DoubleValue
6.423

@<SCITEGIC>MOL_PROPERTY
Grad RMS
SciTegic.value.DoubleValue
0.000000

@<SCITEGIC>MOL_PROPERTY
U
SciTegic.value.DoubleValue
8.781

@<SCITEGIC>MOL_PROPERTY
W
SciTegic.value.DoubleValue
-2.358

@<SCITEGIC>MOL_PROPERTY
W(PB)
SciTegic.value.DoubleValue
-4.373

@<SCITEGIC>MOL_PROPERTY
W(SA)
SciTegic.value.DoubleValue
2.015

@<SCITEGIC>MOL_PROPERTY
Valence
SciTegic.value.DoubleValue
13.328

@<SCITEGIC>MOL_PROPERTY
Coulomb
SciTegic.value.DoubleValue
-8.387

@<SCITEGIC>MOL_PROPERTY
VdW
SciTegic.value.DoubleValue
3.840

@<SCITEGIC>MOL_PROPERTY
VdW6
SciTegic.value.DoubleValue
-9.744

@<SCITEGIC>MOL_PROPERTY
VdW12
SciTegic.value.DoubleValue
13.584

@<SCITEGIC>MOL_PROPERTY
Bond
SciTegic.value.DoubleValue
0.436

@<SCITEGIC>MOL_PROPERTY
Angle
SciTegic.value.DoubleValue
3.478

@<SCITEGIC>MOL_PROPERTY
Pdih
SciTegic.value.DoubleValue
9.415

@<SCITEGIC>MOL_PROPERTY
Idih
SciTegic.value.DoubleValue
0.000

@<SCITEGIC>MOL_PROPERTY
Tether
SciTegic.value.DoubleValue
0.000

@<TRIPOS>MOLECULE
guest-5_confgen4.mol2 : confsearch ligand conformer 394
          22          22           1
SMALL
USER_CHARGES
 
@<TRIPOS>ATOM
       1    C1      18.394353   20.095484   23.201831 C.3        1 MOL1        -0.1685
       2    H1      18.808359   20.240825   24.208848 H          1 MOL1         0.0832
       3    H2      17.341107   20.402529   23.259299 H          1 MOL1         0.0832
       4    C2      18.426574   18.600987   22.800466 C.3        1 MOL1        -0.1685
       5    H3      17.708369   18.054814   23.427148 H          1 MOL1         0.0832
       6    H4      18.064776   18.493128   21.768794 H          1 MOL1         0.0832
       7    C3      19.804233   17.912061   22.933761 C.3        1 MOL1        -0.1685
       8    H5      19.710805   16.884077   22.557799 H          1 MOL1         0.0832
       9    H6      20.064594   17.819628   23.997071 H          1 MOL1         0.0832
      10    C4      20.960954   18.611226   22.178550 C.3        1 MOL1        -0.1761
      11    H7      21.811016   17.916664   22.157031 H          1 MOL1         0.0832
      12    H8      20.686721   18.790869   21.130923 H          1 MOL1         0.0832
      13    C5      21.405511   19.927426   22.855022 C.3        1 MOL1         0.1218
      14    H9      21.271970   19.818471   23.940903 H          1 MOL1         0.0789
      15    C6      20.627230   21.180858   22.394062 C.3        1 MOL1        -0.1761
      16    H10     20.789705   21.965925   23.143810 H          1 MOL1         0.0832
      17    H11     21.067463   21.559516   21.461902 H          1 MOL1         0.0832
      18    C7      19.103122   21.009756   22.175285 C.3        1 MOL1        -0.1685
      19    H12     18.641749   22.006235   22.206720 H          1 MOL1         0.0832
      20    H13     18.917716   20.631925   21.160604 H          1 MOL1         0.0832
      21    O1      22.785127   20.140027   22.581750 O.3        1 MOL1        -0.5509
      22    H14     23.267604   19.370078   22.949194 H          1 MOL1         0.3779
@<TRIPOS>BOND
    1     1     2    1
    2     1     3    1
    3     1     4    1
    4     4     5    1
    5     4     6    1
    6     4     7    1
    7     7     8    1
    8     7     9    1
    9     7    10    1
   10    10    11    1
   11    10    12    1
   12    10    13    1
   13    13    14    1
   14    13    15    1
   15    15    16    1
   16    15    17    1
   17     1    18    1
   18    15    18    1
   19    18    19    1
   20    18    20    1
   21    13    21    1
   22    21    22    1
@<TRIPOS>SUBSTRUCTURE
       1 MOL1            1 RESIDUE      1      MOL     
@<SCITEGIC>MOL_PROPERTY
VConf Rank
SciTegic.value.IntegerValue
394

@<SCITEGIC>MOL_PROPERTY
Conf_Id
SciTegic.value.IntegerValue
144

@<SCITEGIC>MOL_PROPERTY
Delta U+W
SciTegic.value.DoubleValue
-3.291

@<SCITEGIC>MOL_PROPERTY
U+W
SciTegic.value.DoubleValue
3.132

@<SCITEGIC>MOL_PROPERTY
Grad RMS
SciTegic.value.DoubleValue
0.000000

@<SCITEGIC>MOL_PROPERTY
U
SciTegic.value.DoubleValue
5.411

@<SCITEGIC>MOL_PROPERTY
W
SciTegic.value.DoubleValue
-2.279

@<SCITEGIC>MOL_PROPERTY
W(PB)
SciTegic.value.DoubleValue
-4.300

@<SCITEGIC>MOL_PROPERTY
W(SA)
SciTegic.value.DoubleValue
2.021

@<SCITEGIC>MOL_PROPERTY
Valence
SciTegic.value.DoubleValue
11.909

@<SCITEGIC>MOL_PROPERTY
Coulomb
SciTegic.value.DoubleValue
-8.733

@<SCITEGIC>MOL_PROPERTY
VdW
SciTegic.value.DoubleValue
2.236

@<SCITEGIC>MOL_PROPERTY
VdW6
SciTegic.value.DoubleValue
-8.936

@<SCITEGIC>MOL_PROPERTY
VdW12
SciTegic.value.DoubleValue
11.172

@<SCITEGIC>MOL_PROPERTY
Bond
SciTegic.value.DoubleValue
0.223

@<SCITEGIC>MOL_PROPERTY
Angle
SciTegic.value.DoubleValue
2.457

@<SCITEGIC>MOL_PROPERTY
Pdih
SciTegic.value.DoubleValue
9.228

@<SCITEGIC>MOL_PROPERTY
Idih
SciTegic.value.DoubleValue
0.000

@<SCITEGIC>MOL_PROPERTY
Tether
SciTegic.value.DoubleValue
0.000

@<TRIPOS>MOLECULE
guest-5_confgen4.mol2 : confsearch ligand conformer 395
          22          22           1
SMALL
USER_CHARGES
 
@<TRIPOS>ATOM
       1    C1      20.960653   20.834279   22.088292 C.3        1 MOL1        -0.1685
       2    H1      21.794671   21.531154   21.928071 H          1 MOL1         0.0832
       3    H2      20.171331   21.138783   21.387628 H          1 MOL1         0.0832
       4    C2      20.485960   20.984974   23.552544 C.3        1 MOL1        -0.1685
       5    H3      21.132830   20.388058   24.209830 H          1 MOL1         0.0832
       6    H4      20.630738   22.027478   23.867540 H          1 MOL1         0.0832
       7    C3      19.004764   20.612477   23.803994 C.3        1 MOL1        -0.1685
       8    H5      18.372202   21.476159   23.557352 H          1 MOL1         0.0832
       9    H6      18.872367   20.444031   24.881545 H          1 MOL1         0.0832
      10    C4      18.465102   19.383480   23.031678 C.3        1 MOL1        -0.1761
      11    H7      17.552125   19.042747   23.538476 H          1 MOL1         0.0832
      12    H8      18.148921   19.698365   22.028796 H          1 MOL1         0.0832
      13    C5      19.456655   18.204859   22.908120 C.3        1 MOL1         0.1218
      14    H9      20.074383   18.146651   23.815585 H          1 MOL1         0.0789
      15    C6      20.369192   18.325903   21.666507 C.3        1 MOL1        -0.1761
      16    H10     20.860115   17.358540   21.495234 H          1 MOL1         0.0832
      17    H11     19.754356   18.515650   20.777092 H          1 MOL1         0.0832
      18    C7      21.469415   19.409372   21.763037 C.3        1 MOL1        -0.1685
      19    H12     22.212881   19.107338   22.513343 H          1 MOL1         0.0832
      20    H13     22.006358   19.439366   20.805133 H          1 MOL1         0.0832
      21    O1      18.708517   17.002722   22.784150 O.3        1 MOL1        -0.5509
      22    H14     18.172535   17.093241   21.969479 H          1 MOL1         0.3779
@<TRIPOS>BOND
    1     1     2    1
    2     1     3    1
    3     1     4    1
    4     4     5    1
    5     4     6    1
    6     4     7    1
    7     7     8    1
    8     7     9    1
    9     7    10    1
   10    10    11    1
   11    10    12    1
   12    10    13    1
   13    13    14    1
   14    13    15    1
   15    15    16    1
   16    15    17    1
   17     1    18    1
   18    15    18    1
   19    18    19    1
   20    18    20    1
   21    13    21    1
   22    21    22    1
@<TRIPOS>SUBSTRUCTURE
       1 MOL1            1 RESIDUE      1      MOL     
@<SCITEGIC>MOL_PROPERTY
VConf Rank
SciTegic.value.IntegerValue
395

@<SCITEGIC>MOL_PROPERTY
Conf_Id
SciTegic.value.IntegerValue
76

@<SCITEGIC>MOL_PROPERTY
Delta U+W
SciTegic.value.DoubleValue
-3.175

@<SCITEGIC>MOL_PROPERTY
U+W
SciTegic.value.DoubleValue
3.248

@<SCITEGIC>MOL_PROPERTY
Grad RMS
SciTegic.value.DoubleValue
0.000000

@<SCITEGIC>MOL_PROPERTY
U
SciTegic.value.DoubleValue
5.336

@<SCITEGIC>MOL_PROPERTY
W
SciTegic.value.DoubleValue
-2.088

@<SCITEGIC>MOL_PROPERTY
W(PB)
SciTegic.value.DoubleValue
-4.098

@<SCITEGIC>MOL_PROPERTY
W(SA)
SciTegic.value.DoubleValue
2.010

@<SCITEGIC>MOL_PROPERTY
Valence
SciTegic.value.DoubleValue
12.390

@<SCITEGIC>MOL_PROPERTY
Coulomb
SciTegic.value.DoubleValue
-9.270

@<SCITEGIC>MOL_PROPERTY
VdW
SciTegic.value.DoubleValue
2.216

@<SCITEGIC>MOL_PROPERTY
VdW6
SciTegic.value.DoubleValue
-8.967

@<SCITEGIC>MOL_PROPERTY
VdW12
SciTegic.value.DoubleValue
11.183

@<SCITEGIC>MOL_PROPERTY
Bond
SciTegic.value.DoubleValue
0.218

@<SCITEGIC>MOL_PROPERTY
Angle
SciTegic.value.DoubleValue
2.426

@<SCITEGIC>MOL_PROPERTY
Pdih
SciTegic.value.DoubleValue
9.745

@<SCITEGIC>MOL_PROPERTY
Idih
SciTegic.value.DoubleValue
0.000

@<SCITEGIC>MOL_PROPERTY
Tether
SciTegic.value.DoubleValue
0.000

@<TRIPOS>MOLECULE
guest-5_confgen4.mol2 : confsearch ligand conformer 396
          22          22           1
SMALL
USER_CHARGES
 
@<TRIPOS>ATOM
       1    C1      19.820069   21.165511   23.620544 C.3        1 MOL1        -0.1685
       2    H1      20.011195   22.183042   23.253280 H          1 MOL1         0.0832
       3    H2      19.375388   21.287121   24.617682 H          1 MOL1         0.0832
       4    C2      21.179020   20.439076   23.762736 C.3        1 MOL1        -0.1685
       5    H3      21.847915   20.750146   22.948921 H          1 MOL1         0.0832
       6    H4      21.657243   20.791606   24.686754 H          1 MOL1         0.0832
       7    C3      21.095169   18.895294   23.798067 C.3        1 MOL1        -0.1685
       8    H5      20.205854   18.561931   24.350176 H          1 MOL1         0.0832
       9    H6      21.961014   18.519493   24.359651 H          1 MOL1         0.0832
      10    C4      21.137111   18.259609   22.385188 C.3        1 MOL1        -0.1761
      11    H7      21.994096   18.665209   21.832396 H          1 MOL1         0.0832
      12    H8      21.336137   17.185023   22.490387 H          1 MOL1         0.0832
      13    C5      19.864965   18.426180   21.523216 C.3        1 MOL1         0.1218
      14    H9      20.122591   18.087904   20.509167 H          1 MOL1         0.0789
      15    C6      19.338140   19.877933   21.399290 C.3        1 MOL1        -0.1761
      16    H10     20.125842   20.526248   20.994207 H          1 MOL1         0.0832
      17    H11     18.539418   19.877108   20.646409 H          1 MOL1         0.0832
      18    C7      18.770815   20.487095   22.707832 C.3        1 MOL1        -0.1685
      19    H12     18.013336   21.238989   22.448404 H          1 MOL1         0.0832
      20    H13     18.233680   19.718682   23.279206 H          1 MOL1         0.0832
      21    O1      18.840779   17.575054   22.027844 O.3        1 MOL1        -0.5509
      22    H14     18.042442   17.749552   21.488871 H          1 MOL1         0.3779
@<TRIPOS>BOND
    1     1     2    1
    2     1     3    1
    3     1     4    1
    4     4     5    1
    5     4     6    1
    6     4     7    1
    7     7     8    1
    8     7     9    1
    9     7    10    1
   10    10    11    1
   11    10    12    1
   12    10    13    1
   13    13    14    1
   14    13    15    1
   15    15    16    1
   16    15    17    1
   17     1    18    1
   18    15    18    1
   19    18    19    1
   20    18    20    1
   21    13    21    1
   22    21    22    1
@<TRIPOS>SUBSTRUCTURE
       1 MOL1            1 RESIDUE      1      MOL     
@<SCITEGIC>MOL_PROPERTY
VConf Rank
SciTegic.value.IntegerValue
396

@<SCITEGIC>MOL_PROPERTY
Conf_Id
SciTegic.value.IntegerValue
95

@<SCITEGIC>MOL_PROPERTY
Delta U+W
SciTegic.value.DoubleValue
-2.289

@<SCITEGIC>MOL_PROPERTY
U+W
SciTegic.value.DoubleValue
4.134

@<SCITEGIC>MOL_PROPERTY
Grad RMS
SciTegic.value.DoubleValue
0.000000

@<SCITEGIC>MOL_PROPERTY
U
SciTegic.value.DoubleValue
6.373

@<SCITEGIC>MOL_PROPERTY
W
SciTegic.value.DoubleValue
-2.240

@<SCITEGIC>MOL_PROPERTY
W(PB)
SciTegic.value.DoubleValue
-4.254

@<SCITEGIC>MOL_PROPERTY
W(SA)
SciTegic.value.DoubleValue
2.015

@<SCITEGIC>MOL_PROPERTY
Valence
SciTegic.value.DoubleValue
12.093

@<SCITEGIC>MOL_PROPERTY
Coulomb
SciTegic.value.DoubleValue
-8.058

@<SCITEGIC>MOL_PROPERTY
VdW
SciTegic.value.DoubleValue
2.339

@<SCITEGIC>MOL_PROPERTY
VdW6
SciTegic.value.DoubleValue
-9.683

@<SCITEGIC>MOL_PROPERTY
VdW12
SciTegic.value.DoubleValue
12.022

@<SCITEGIC>MOL_PROPERTY
Bond
SciTegic.value.DoubleValue
0.268

@<SCITEGIC>MOL_PROPERTY
Angle
SciTegic.value.DoubleValue
3.005

@<SCITEGIC>MOL_PROPERTY
Pdih
SciTegic.value.DoubleValue
8.820

@<SCITEGIC>MOL_PROPERTY
Idih
SciTegic.value.DoubleValue
0.000

@<SCITEGIC>MOL_PROPERTY
Tether
SciTegic.value.DoubleValue
0.000

@<TRIPOS>MOLECULE
guest-5_confgen4.mol2 : confsearch ligand conformer 397
          22          22           1
SMALL
USER_CHARGES
 
@<TRIPOS>ATOM
       1    C1      18.964241   18.233309   21.972929 C.3        1 MOL1        -0.1685
       2    H1      17.874142   18.223212   21.837516 H          1 MOL1         0.0832
       3    H2      19.324608   17.281318   21.559845 H          1 MOL1         0.0832
       4    C2      19.263095   18.265856   23.490808 C.3        1 MOL1        -0.1685
       5    H3      18.508442   18.881092   23.999201 H          1 MOL1         0.0832
       6    H4      19.127150   17.249612   23.885230 H          1 MOL1         0.0832
       7    C3      20.676212   18.766722   23.869948 C.3        1 MOL1        -0.1685
       8    H5      21.425203   18.414348   23.147684 H          1 MOL1         0.0832
       9    H6      20.948578   18.318361   24.834942 H          1 MOL1         0.0832
      10    C4      20.741431   20.306719   24.029533 C.3        1 MOL1        -0.1761
      11    H7      19.927281   20.634033   24.689018 H          1 MOL1         0.0832
      12    H8      21.667155   20.565741   24.559556 H          1 MOL1         0.0832
      13    C5      20.681267   21.130940   22.723097 C.3        1 MOL1         0.1218
      14    H9      20.561431   22.183727   23.017002 H          1 MOL1         0.0789
      15    C6      19.500874   20.785259   21.781018 C.3        1 MOL1        -0.1761
      16    H10     18.548695   20.909204   22.312507 H          1 MOL1         0.0832
      17    H11     19.496182   21.534423   20.978796 H          1 MOL1         0.0832
      18    C7      19.568054   19.380221   21.127721 C.3        1 MOL1        -0.1685
      19    H12     19.032411   19.411063   20.169414 H          1 MOL1         0.0832
      20    H13     20.607604   19.137412   20.870818 H          1 MOL1         0.0832
      21    O1      21.917091   21.002767   22.026532 O.3        1 MOL1        -0.5509
      22    H14     22.625189   21.214479   22.668374 H          1 MOL1         0.3779
@<TRIPOS>BOND
    1     1     2    1
    2     1     3    1
    3     1     4    1
    4     4     5    1
    5     4     6    1
    6     4     7    1
    7     7     8    1
    8     7     9    1
    9     7    10    1
   10    10    11    1
   11    10    12    1
   12    10    13    1
   13    13    14    1
   14    13    15    1
   15    15    16    1
   16    15    17    1
   17     1    18    1
   18    15    18    1
   19    18    19    1
   20    18    20    1
   21    13    21    1
   22    21    22    1
@<TRIPOS>SUBSTRUCTURE
       1 MOL1            1 RESIDUE      1      MOL     
@<SCITEGIC>MOL_PROPERTY
VConf Rank
SciTegic.value.IntegerValue
397

@<SCITEGIC>MOL_PROPERTY
Conf_Id
SciTegic.value.IntegerValue
41

@<SCITEGIC>MOL_PROPERTY
Delta U+W
SciTegic.value.DoubleValue
-2.114

@<SCITEGIC>MOL_PROPERTY
U+W
SciTegic.value.DoubleValue
4.310

@<SCITEGIC>MOL_PROPERTY
Grad RMS
SciTegic.value.DoubleValue
0.000000

@<SCITEGIC>MOL_PROPERTY
U
SciTegic.value.DoubleValue
6.598

@<SCITEGIC>MOL_PROPERTY
W
SciTegic.value.DoubleValue
-2.289

@<SCITEGIC>MOL_PROPERTY
W(PB)
SciTegic.value.DoubleValue
-4.294

@<SCITEGIC>MOL_PROPERTY
W(SA)
SciTegic.value.DoubleValue
2.005

@<SCITEGIC>MOL_PROPERTY
Valence
SciTegic.value.DoubleValue
12.082

@<SCITEGIC>MOL_PROPERTY
Coulomb
SciTegic.value.DoubleValue
-7.801

@<SCITEGIC>MOL_PROPERTY
VdW
SciTegic.value.DoubleValue
2.317

@<SCITEGIC>MOL_PROPERTY
VdW6
SciTegic.value.DoubleValue
-9.658

@<SCITEGIC>MOL_PROPERTY
VdW12
SciTegic.value.DoubleValue
11.975

@<SCITEGIC>MOL_PROPERTY
Bond
SciTegic.value.DoubleValue
0.267

@<SCITEGIC>MOL_PROPERTY
Angle
SciTegic.value.DoubleValue
3.051

@<SCITEGIC>MOL_PROPERTY
Pdih
SciTegic.value.DoubleValue
8.764

@<SCITEGIC>MOL_PROPERTY
Idih
SciTegic.value.DoubleValue
0.000

@<SCITEGIC>MOL_PROPERTY
Tether
SciTegic.value.DoubleValue
0.000

@<TRIPOS>MOLECULE
guest-5_confgen4.mol2 : confsearch ligand conformer 398
          22          22           1
SMALL
USER_CHARGES
 
@<TRIPOS>ATOM
       1    C1      19.457250   18.573977   21.510003 C.3        1 MOL1        -0.1685
       2    H1      19.105751   17.745334   20.880440 H          1 MOL1         0.0832
       3    H2      18.962388   19.479241   21.132134 H          1 MOL1         0.0832
       4    C2      20.989747   18.678825   21.343137 C.3        1 MOL1        -0.1685
       5    H3      21.468727   17.793369   21.782601 H          1 MOL1         0.0832
       6    H4      21.228707   18.649705   20.271405 H          1 MOL1         0.0832
       7    C3      21.617335   19.955703   21.943917 C.3        1 MOL1        -0.1685
       8    H5      21.296990   20.829424   21.360925 H          1 MOL1         0.0832
       9    H6      22.705350   19.894256   21.807629 H          1 MOL1         0.0832
      10    C4      21.326367   20.187499   23.451496 C.3        1 MOL1        -0.1761
      11    H7      21.574020   19.285855   24.025921 H          1 MOL1         0.0832
      12    H8      22.015684   20.963991   23.807145 H          1 MOL1         0.0832
      13    C5      19.890564   20.656519   23.801527 C.3        1 MOL1         0.1218
      14    H9      19.934385   21.074634   24.817665 H          1 MOL1         0.0789
      15    C6      18.806504   19.548083   23.837922 C.3        1 MOL1        -0.1761
      16    H10     18.696793   19.215696   24.878376 H          1 MOL1         0.0832
      17    H11     17.836186   19.987811   23.572227 H          1 MOL1         0.0832
      18    C7      19.033849   18.287242   22.967581 C.3        1 MOL1        -0.1685
      19    H12     19.772795   17.631208   23.447157 H          1 MOL1         0.0832
      20    H13     18.096450   17.714705   22.954814 H          1 MOL1         0.0832
      21    O1      19.479436   21.700811   22.923263 O.3        1 MOL1        -0.5509
      22    H14     18.588609   21.981742   23.215521 H          1 MOL1         0.3779
@<TRIPOS>BOND
    1     1     2    1
    2     1     3    1
    3     1     4    1
    4     4     5    1
    5     4     6    1
    6     4     7    1
    7     7     8    1
    8     7     9    1
    9     7    10    1
   10    10    11    1
   11    10    12    1
   12    10    13    1
   13    13    14    1
   14    13    15    1
   15    15    16    1
   16    15    17    1
   17     1    18    1
   18    15    18    1
   19    18    19    1
   20    18    20    1
   21    13    21    1
   22    21    22    1
@<TRIPOS>SUBSTRUCTURE
       1 MOL1            1 RESIDUE      1      MOL     
@<SCITEGIC>MOL_PROPERTY
VConf Rank
SciTegic.value.IntegerValue
398

@<SCITEGIC>MOL_PROPERTY
Conf_Id
SciTegic.value.IntegerValue
104

@<SCITEGIC>MOL_PROPERTY
Delta U+W
SciTegic.value.DoubleValue
-1.172

@<SCITEGIC>MOL_PROPERTY
U+W
SciTegic.value.DoubleValue
5.252

@<SCITEGIC>MOL_PROPERTY
Grad RMS
SciTegic.value.DoubleValue
0.000000

@<SCITEGIC>MOL_PROPERTY
U
SciTegic.value.DoubleValue
7.482

@<SCITEGIC>MOL_PROPERTY
W
SciTegic.value.DoubleValue
-2.230

@<SCITEGIC>MOL_PROPERTY
W(PB)
SciTegic.value.DoubleValue
-4.220

@<SCITEGIC>MOL_PROPERTY
W(SA)
SciTegic.value.DoubleValue
1.990

@<SCITEGIC>MOL_PROPERTY
Valence
SciTegic.value.DoubleValue
12.309

@<SCITEGIC>MOL_PROPERTY
Coulomb
SciTegic.value.DoubleValue
-7.084

@<SCITEGIC>MOL_PROPERTY
VdW
SciTegic.value.DoubleValue
2.258

@<SCITEGIC>MOL_PROPERTY
VdW6
SciTegic.value.DoubleValue
-9.770

@<SCITEGIC>MOL_PROPERTY
VdW12
SciTegic.value.DoubleValue
12.028

@<SCITEGIC>MOL_PROPERTY
Bond
SciTegic.value.DoubleValue
0.284

@<SCITEGIC>MOL_PROPERTY
Angle
SciTegic.value.DoubleValue
3.491

@<SCITEGIC>MOL_PROPERTY
Pdih
SciTegic.value.DoubleValue
8.535

@<SCITEGIC>MOL_PROPERTY
Idih
SciTegic.value.DoubleValue
0.000

@<SCITEGIC>MOL_PROPERTY
Tether
SciTegic.value.DoubleValue
0.000

@<TRIPOS>MOLECULE
guest-5_confgen4.mol2 : confsearch ligand conformer 399
          22          22           1
SMALL
USER_CHARGES
 
@<TRIPOS>ATOM
       1    C1      19.620969   20.462784   21.348388 C.3        1 MOL1        -0.1685
       2    H1      20.139535   19.791442   20.650624 H          1 MOL1         0.0832
       3    H2      19.186330   21.261785   20.732250 H          1 MOL1         0.0832
       4    C2      20.619195   21.114570   22.332362 C.3        1 MOL1        -0.1685
       5    H3      21.122782   21.946415   21.820813 H          1 MOL1         0.0832
       6    H4      20.064644   21.582158   23.156481 H          1 MOL1         0.0832
       7    C3      21.714902   20.175653   22.897636 C.3        1 MOL1        -0.1685
       8    H5      22.051225   20.575941   23.864058 H          1 MOL1         0.0832
       9    H6      22.592453   20.229791   22.238923 H          1 MOL1         0.0832
      10    C4      21.349021   18.676089   23.066872 C.3        1 MOL1        -0.1761
      11    H7      21.409918   18.179399   22.089863 H          1 MOL1         0.0832
      12    H8      22.128749   18.204049   23.678593 H          1 MOL1         0.0832
      13    C5      19.977717   18.353040   23.703383 C.3        1 MOL1         0.1218
      14    H9      20.037162   17.332248   24.107526 H          1 MOL1         0.0789
      15    C6      18.822738   18.360433   22.676622 C.3        1 MOL1        -0.1761
      16    H10     19.066805   17.659416   21.867878 H          1 MOL1         0.0832
      17    H11     17.928991   17.949524   23.164080 H          1 MOL1         0.0832
      18    C7      18.456211   19.732239   22.058079 C.3        1 MOL1        -0.1685
      19    H12     17.654950   19.567231   21.324959 H          1 MOL1         0.0832
      20    H13     18.021705   20.383871   22.828183 H          1 MOL1         0.0832
      21    O1      19.695641   19.253297   24.763637 O.3        1 MOL1        -0.5509
      22    H14     19.742063   20.136144   24.345651 H          1 MOL1         0.3779
@<TRIPOS>BOND
    1     1     2    1
    2     1     3    1
    3     1     4    1
    4     4     5    1
    5     4     6    1
    6     4     7    1
    7     7     8    1
    8     7     9    1
    9     7    10    1
   10    10    11    1
   11    10    12    1
   12    10    13    1
   13    13    14    1
   14    13    15    1
   15    15    16    1
   16    15    17    1
   17     1    18    1
   18    15    18    1
   19    18    19    1
   20    18    20    1
   21    13    21    1
   22    21    22    1
@<TRIPOS>SUBSTRUCTURE
       1 MOL1            1 RESIDUE      1      MOL     
@<SCITEGIC>MOL_PROPERTY
VConf Rank
SciTegic.value.IntegerValue
399

@<SCITEGIC>MOL_PROPERTY
Conf_Id
SciTegic.value.IntegerValue
99

@<SCITEGIC>MOL_PROPERTY
Delta U+W
SciTegic.value.DoubleValue
-3.852

@<SCITEGIC>MOL_PROPERTY
U+W
SciTegic.value.DoubleValue
2.572

@<SCITEGIC>MOL_PROPERTY
Grad RMS
SciTegic.value.DoubleValue
0.000000

@<SCITEGIC>MOL_PROPERTY
U
SciTegic.value.DoubleValue
3.922

@<SCITEGIC>MOL_PROPERTY
W
SciTegic.value.DoubleValue
-1.350

@<SCITEGIC>MOL_PROPERTY
W(PB)
SciTegic.value.DoubleValue
-3.345

@<SCITEGIC>MOL_PROPERTY
W(SA)
SciTegic.value.DoubleValue
1.995

@<SCITEGIC>MOL_PROPERTY
Valence
SciTegic.value.DoubleValue
12.571

@<SCITEGIC>MOL_PROPERTY
Coulomb
SciTegic.value.DoubleValue
-10.581

@<SCITEGIC>MOL_PROPERTY
VdW
SciTegic.value.DoubleValue
1.932

@<SCITEGIC>MOL_PROPERTY
VdW6
SciTegic.value.DoubleValue
-10.483

@<SCITEGIC>MOL_PROPERTY
VdW12
SciTegic.value.DoubleValue
12.415

@<SCITEGIC>MOL_PROPERTY
Bond
SciTegic.value.DoubleValue
0.268

@<SCITEGIC>MOL_PROPERTY
Angle
SciTegic.value.DoubleValue
3.728

@<SCITEGIC>MOL_PROPERTY
Pdih
SciTegic.value.DoubleValue
8.575

@<SCITEGIC>MOL_PROPERTY
Idih
SciTegic.value.DoubleValue
0.000

@<SCITEGIC>MOL_PROPERTY
Tether
SciTegic.value.DoubleValue
0.000

@<TRIPOS>MOLECULE
guest-5_confgen4.mol2 : confsearch ligand conformer 400
          22          22           1
SMALL
USER_CHARGES
 
@<TRIPOS>ATOM
       1    C1      20.290923   21.104323   23.345954 C.3        1 MOL1        -0.1685
       2    H1      20.480887   22.183164   23.260472 H          1 MOL1         0.0832
       3    H2      20.163784   20.923657   24.421710 H          1 MOL1         0.0832
       4    C2      21.550568   20.354731   22.821304 C.3        1 MOL1        -0.1685
       5    H3      22.285807   21.109126   22.508890 H          1 MOL1         0.0832
       6    H4      22.035669   19.809561   23.641986 H          1 MOL1         0.0832
       7    C3      21.320927   19.395587   21.625453 C.3        1 MOL1        -0.1685
       8    H5      22.300550   19.088393   21.234690 H          1 MOL1         0.0832
       9    H6      20.852802   19.941866   20.797196 H          1 MOL1         0.0832
      10    C4      20.506351   18.108089   21.931467 C.3        1 MOL1        -0.1761
      11    H7      20.084671   17.736844   20.988543 H          1 MOL1         0.0832
      12    H8      21.203469   17.327672   22.264592 H          1 MOL1         0.0832
      13    C5      19.367609   18.193658   22.977461 C.3        1 MOL1         0.1218
      14    H9      18.779316   17.269419   22.885447 H          1 MOL1         0.0789
      15    C6      18.378290   19.374351   22.818218 C.3        1 MOL1        -0.1761
      16    H10     17.704931   19.152672   21.980253 H          1 MOL1         0.0832
      17    H11     17.736707   19.390762   23.709341 H          1 MOL1         0.0832
      18    C7      18.962506   20.798868   22.607875 C.3        1 MOL1        -0.1685
      19    H12     19.081106   20.995801   21.535160 H          1 MOL1         0.0832
      20    H13     18.207132   21.524129   22.939736 H          1 MOL1         0.0832
      21    O1      19.921249   18.209324   24.283784 O.3        1 MOL1        -0.5509
      22    H14     20.430617   19.043904   24.314655 H          1 MOL1         0.3779
@<TRIPOS>BOND
    1     1     2    1
    2     1     3    1
    3     1     4    1
    4     4     5    1
    5     4     6    1
    6     4     7    1
    7     7     8    1
    8     7     9    1
    9     7    10    1
   10    10    11    1
   11    10    12    1
   12    10    13    1
   13    13    14    1
   14    13    15    1
   15    15    16    1
   16    15    17    1
   17     1    18    1
   18    15    18    1
   19    18    19    1
   20    18    20    1
   21    13    21    1
   22    21    22    1
@<TRIPOS>SUBSTRUCTURE
       1 MOL1            1 RESIDUE      1      MOL     
@<SCITEGIC>MOL_PROPERTY
VConf Rank
SciTegic.value.IntegerValue
400

@<SCITEGIC>MOL_PROPERTY
Conf_Id
SciTegic.value.IntegerValue
98

@<SCITEGIC>MOL_PROPERTY
Delta U+W
SciTegic.value.DoubleValue
0.930

@<SCITEGIC>MOL_PROPERTY
U+W
SciTegic.value.DoubleValue
7.353

@<SCITEGIC>MOL_PROPERTY
Grad RMS
SciTegic.value.DoubleValue
0.000000

@<SCITEGIC>MOL_PROPERTY
U
SciTegic.value.DoubleValue
8.455

@<SCITEGIC>MOL_PROPERTY
W
SciTegic.value.DoubleValue
-1.102

@<SCITEGIC>MOL_PROPERTY
W(PB)
SciTegic.value.DoubleValue
-3.101

@<SCITEGIC>MOL_PROPERTY
W(SA)
SciTegic.value.DoubleValue
2.000

@<SCITEGIC>MOL_PROPERTY
Valence
SciTegic.value.DoubleValue
15.601

@<SCITEGIC>MOL_PROPERTY
Coulomb
SciTegic.value.DoubleValue
-10.573

@<SCITEGIC>MOL_PROPERTY
VdW
SciTegic.value.DoubleValue
3.427

@<SCITEGIC>MOL_PROPERTY
VdW6
SciTegic.value.DoubleValue
-11.360

@<SCITEGIC>MOL_PROPERTY
VdW12
SciTegic.value.DoubleValue
14.787

@<SCITEGIC>MOL_PROPERTY
Bond
SciTegic.value.DoubleValue
0.471

@<SCITEGIC>MOL_PROPERTY
Angle
SciTegic.value.DoubleValue
5.445

@<SCITEGIC>MOL_PROPERTY
Pdih
SciTegic.value.DoubleValue
9.685

@<SCITEGIC>MOL_PROPERTY
Idih
SciTegic.value.DoubleValue
0.000

@<SCITEGIC>MOL_PROPERTY
Tether
SciTegic.value.DoubleValue
0.000

@<TRIPOS>MOLECULE
guest-5_confgen4.mol2 : confsearch ligand conformer 401
          22          22           1
SMALL
USER_CHARGES
 
@<TRIPOS>ATOM
       1    C1      21.666330   19.984024   22.819518 C.3        1 MOL1        -0.1685
       2    H1      21.823604   19.023860   23.327584 H          1 MOL1         0.0832
       3    H2      22.662496   20.443654   22.763805 H          1 MOL1         0.0832
       4    C2      20.752538   20.890258   23.683164 C.3        1 MOL1        -0.1685
       5    H3      21.249149   21.032471   24.652714 H          1 MOL1         0.0832
       6    H4      20.692004   21.889344   23.230632 H          1 MOL1         0.0832
       7    C3      19.315470   20.362196   23.948932 C.3        1 MOL1        -0.1685
       8    H5      18.595722   20.893069   23.312416 H          1 MOL1         0.0832
       9    H6      19.036281   20.631434   24.976647 H          1 MOL1         0.0832
      10    C4      19.134163   18.831640   23.769390 C.3        1 MOL1        -0.1761
      11    H7      19.897123   18.307335   24.358135 H          1 MOL1         0.0832
      12    H8      18.177996   18.541738   24.225558 H          1 MOL1         0.0832
      13    C5      19.171793   18.309696   22.303092 C.3        1 MOL1         0.1218
      14    H9      19.820780   17.422487   22.275827 H          1 MOL1         0.0789
      15    C6      19.681995   19.314307   21.239744 C.3        1 MOL1        -0.1761
      16    H10     19.546363   18.875867   20.242532 H          1 MOL1         0.0832
      17    H11     19.050072   20.210537   21.245504 H          1 MOL1         0.0832
      18    C7      21.168071   19.729554   21.377428 C.3        1 MOL1        -0.1685
      19    H12     21.798259   18.948185   20.931178 H          1 MOL1         0.0832
      20    H13     21.334755   20.632205   20.774014 H          1 MOL1         0.0832
      21    O1      17.854228   17.924345   21.927987 O.3        1 MOL1        -0.5509
      22    H14     17.916060   17.547598   21.025536 H          1 MOL1         0.3779
@<TRIPOS>BOND
    1     1     2    1
    2     1     3    1
    3     1     4    1
    4     4     5    1
    5     4     6    1
    6     4     7    1
    7     7     8    1
    8     7     9    1
    9     7    10    1
   10    10    11    1
   11    10    12    1
   12    10    13    1
   13    13    14    1
   14    13    15    1
   15    15    16    1
   16    15    17    1
   17     1    18    1
   18    15    18    1
   19    18    19    1
   20    18    20    1
   21    13    21    1
   22    21    22    1
@<TRIPOS>SUBSTRUCTURE
       1 MOL1            1 RESIDUE      1      MOL     
@<SCITEGIC>MOL_PROPERTY
VConf Rank
SciTegic.value.IntegerValue
401

@<SCITEGIC>MOL_PROPERTY
Conf_Id
SciTegic.value.IntegerValue
141

@<SCITEGIC>MOL_PROPERTY
Delta U+W
SciTegic.value.DoubleValue
0.000

@<SCITEGIC>MOL_PROPERTY
U+W
SciTegic.value.DoubleValue
6.423

@<SCITEGIC>MOL_PROPERTY
Grad RMS
SciTegic.value.DoubleValue
0.000000

@<SCITEGIC>MOL_PROPERTY
U
SciTegic.value.DoubleValue
8.781

@<SCITEGIC>MOL_PROPERTY
W
SciTegic.value.DoubleValue
-2.358

@<SCITEGIC>MOL_PROPERTY
W(PB)
SciTegic.value.DoubleValue
-4.373

@<SCITEGIC>MOL_PROPERTY
W(SA)
SciTegic.value.DoubleValue
2.015

@<SCITEGIC>MOL_PROPERTY
Valence
SciTegic.value.DoubleValue
13.328

@<SCITEGIC>MOL_PROPERTY
Coulomb
SciTegic.value.DoubleValue
-8.387

@<SCITEGIC>MOL_PROPERTY
VdW
SciTegic.value.DoubleValue
3.840

@<SCITEGIC>MOL_PROPERTY
VdW6
SciTegic.value.DoubleValue
-9.744

@<SCITEGIC>MOL_PROPERTY
VdW12
SciTegic.value.DoubleValue
13.584

@<SCITEGIC>MOL_PROPERTY
Bond
SciTegic.value.DoubleValue
0.436

@<SCITEGIC>MOL_PROPERTY
Angle
SciTegic.value.DoubleValue
3.478

@<SCITEGIC>MOL_PROPERTY
Pdih
SciTegic.value.DoubleValue
9.415

@<SCITEGIC>MOL_PROPERTY
Idih
SciTegic.value.DoubleValue
0.000

@<SCITEGIC>MOL_PROPERTY
Tether
SciTegic.value.DoubleValue
0.000

@<TRIPOS>MOLECULE
guest-5_confgen4.mol2 : confsearch ligand conformer 402
          22          22           1
SMALL
USER_CHARGES
 
@<TRIPOS>ATOM
       1    C1      20.463583   20.297915   24.193852 C.3        1 MOL1        -0.1685
       2    H1      20.517593   21.282385   23.709589 H          1 MOL1         0.0832
       3    H2      20.686293   20.469302   25.255893 H          1 MOL1         0.0832
       4    C2      21.547905   19.345591   23.634407 C.3        1 MOL1        -0.1685
       5    H3      22.533069   19.708827   23.957466 H          1 MOL1         0.0832
       6    H4      21.431477   18.353096   24.090781 H          1 MOL1         0.0832
       7    C3      21.568217   19.201342   22.095216 C.3        1 MOL1        -0.1685
       8    H5      22.329098   18.454173   21.831346 H          1 MOL1         0.0832
       9    H6      21.905921   20.144746   21.644766 H          1 MOL1         0.0832
      10    C4      20.220619   18.779937   21.459939 C.3        1 MOL1        -0.1761
      11    H7      20.420142   18.490299   20.419850 H          1 MOL1         0.0832
      12    H8      19.822124   17.884965   21.955140 H          1 MOL1         0.0832
      13    C5      19.174008   19.916634   21.472232 C.3        1 MOL1         0.1218
      14    H9      19.704323   20.873909   21.366238 H          1 MOL1         0.0789
      15    C6      18.310091   19.980002   22.752438 C.3        1 MOL1        -0.1761
      16    H10     17.852201   20.976725   22.794021 H          1 MOL1         0.0832
      17    H11     17.477051   19.269816   22.664179 H          1 MOL1         0.0832
      18    C7      19.036560   19.709997   24.093850 C.3        1 MOL1        -0.1685
      19    H12     18.421417   20.126963   24.902901 H          1 MOL1         0.0832
      20    H13     19.073455   18.628085   24.280438 H          1 MOL1         0.0832
      21    O1      18.302745   19.749551   20.360386 O.3        1 MOL1        -0.5509
      22    H14     18.861166   19.788248   19.555844 H          1 MOL1         0.3779
@<TRIPOS>BOND
    1     1     2    1
    2     1     3    1
    3     1     4    1
    4     4     5    1
    5     4     6    1
    6     4     7    1
    7     7     8    1
    8     7     9    1
    9     7    10    1
   10    10    11    1
   11    10    12    1
   12    10    13    1
   13    13    14    1
   14    13    15    1
   15    15    16    1
   16    15    17    1
   17     1    18    1
   18    15    18    1
   19    18    19    1
   20    18    20    1
   21    13    21    1
   22    21    22    1
@<TRIPOS>SUBSTRUCTURE
       1 MOL1            1 RESIDUE      1      MOL     
@<SCITEGIC>MOL_PROPERTY
VConf Rank
SciTegic.value.IntegerValue
402

@<SCITEGIC>MOL_PROPERTY
Conf_Id
SciTegic.value.IntegerValue
144

@<SCITEGIC>MOL_PROPERTY
Delta U+W
SciTegic.value.DoubleValue
-3.291

@<SCITEGIC>MOL_PROPERTY
U+W
SciTegic.value.DoubleValue
3.132

@<SCITEGIC>MOL_PROPERTY
Grad RMS
SciTegic.value.DoubleValue
0.000000

@<SCITEGIC>MOL_PROPERTY
U
SciTegic.value.DoubleValue
5.411

@<SCITEGIC>MOL_PROPERTY
W
SciTegic.value.DoubleValue
-2.279

@<SCITEGIC>MOL_PROPERTY
W(PB)
SciTegic.value.DoubleValue
-4.300

@<SCITEGIC>MOL_PROPERTY
W(SA)
SciTegic.value.DoubleValue
2.021

@<SCITEGIC>MOL_PROPERTY
Valence
SciTegic.value.DoubleValue
11.909

@<SCITEGIC>MOL_PROPERTY
Coulomb
SciTegic.value.DoubleValue
-8.733

@<SCITEGIC>MOL_PROPERTY
VdW
SciTegic.value.DoubleValue
2.236

@<SCITEGIC>MOL_PROPERTY
VdW6
SciTegic.value.DoubleValue
-8.936

@<SCITEGIC>MOL_PROPERTY
VdW12
SciTegic.value.DoubleValue
11.172

@<SCITEGIC>MOL_PROPERTY
Bond
SciTegic.value.DoubleValue
0.223

@<SCITEGIC>MOL_PROPERTY
Angle
SciTegic.value.DoubleValue
2.457

@<SCITEGIC>MOL_PROPERTY
Pdih
SciTegic.value.DoubleValue
9.228

@<SCITEGIC>MOL_PROPERTY
Idih
SciTegic.value.DoubleValue
0.000

@<SCITEGIC>MOL_PROPERTY
Tether
SciTegic.value.DoubleValue
0.000

@<TRIPOS>MOLECULE
guest-5_confgen4.mol2 : confsearch ligand conformer 403
          22          22           1
SMALL
USER_CHARGES
 
@<TRIPOS>ATOM
       1    C1      19.245527   20.033537   21.140024 C.3        1 MOL1        -0.1685
       2    H1      18.953053   20.587909   20.237793 H          1 MOL1         0.0832
       3    H2      18.768628   19.047317   21.058663 H          1 MOL1         0.0832
       4    C2      18.710781   20.804523   22.369537 C.3        1 MOL1        -0.1685
       5    H3      19.406163   21.616369   22.622764 H          1 MOL1         0.0832
       6    H4      17.769177   21.300178   22.096213 H          1 MOL1         0.0832
       7    C3      18.446129   19.937190   23.623975 C.3        1 MOL1        -0.1685
       8    H5      17.452515   19.476675   23.536947 H          1 MOL1         0.0832
       9    H6      18.390439   20.603817   24.495482 H          1 MOL1         0.0832
      10    C4      19.473857   18.815269   23.912435 C.3        1 MOL1        -0.1761
      11    H7      19.360301   18.518011   24.963726 H          1 MOL1         0.0832
      12    H8      19.213196   17.927224   23.322243 H          1 MOL1         0.0832
      13    C5      20.946662   19.195243   23.640301 C.3        1 MOL1         0.1218
      14    H9      21.102794   20.257272   23.877334 H          1 MOL1         0.0789
      15    C6      21.368540   18.922697   22.178550 C.3        1 MOL1        -0.1761
      16    H10     22.463958   18.968199   22.114370 H          1 MOL1         0.0832
      17    H11     21.090904   17.897184   21.902274 H          1 MOL1         0.0832
      18    C7      20.787693   19.904419   21.133297 C.3        1 MOL1        -0.1685
      19    H12     21.237470   20.896471   21.276331 H          1 MOL1         0.0832
      20    H13     21.106984   19.572226   20.136057 H          1 MOL1         0.0832
      21    O1      21.774624   18.409336   24.487084 O.3        1 MOL1        -0.5509
      22    H14     21.606680   17.474560   24.248027 H          1 MOL1         0.3779
@<TRIPOS>BOND
    1     1     2    1
    2     1     3    1
    3     1     4    1
    4     4     5    1
    5     4     6    1
    6     4     7    1
    7     7     8    1
    8     7     9    1
    9     7    10    1
   10    10    11    1
   11    10    12    1
   12    10    13    1
   13    13    14    1
   14    13    15    1
   15    15    16    1
   16    15    17    1
   17     1    18    1
   18    15    18    1
   19    18    19    1
   20    18    20    1
   21    13    21    1
   22    21    22    1
@<TRIPOS>SUBSTRUCTURE
       1 MOL1            1 RESIDUE      1      MOL     
@<SCITEGIC>MOL_PROPERTY
VConf Rank
SciTegic.value.IntegerValue
403

@<SCITEGIC>MOL_PROPERTY
Conf_Id
SciTegic.value.IntegerValue
76

@<SCITEGIC>MOL_PROPERTY
Delta U+W
SciTegic.value.DoubleValue
-3.175

@<SCITEGIC>MOL_PROPERTY
U+W
SciTegic.value.DoubleValue
3.248

@<SCITEGIC>MOL_PROPERTY
Grad RMS
SciTegic.value.DoubleValue
0.000000

@<SCITEGIC>MOL_PROPERTY
U
SciTegic.value.DoubleValue
5.336

@<SCITEGIC>MOL_PROPERTY
W
SciTegic.value.DoubleValue
-2.088

@<SCITEGIC>MOL_PROPERTY
W(PB)
SciTegic.value.DoubleValue
-4.098

@<SCITEGIC>MOL_PROPERTY
W(SA)
SciTegic.value.DoubleValue
2.010

@<SCITEGIC>MOL_PROPERTY
Valence
SciTegic.value.DoubleValue
12.390

@<SCITEGIC>MOL_PROPERTY
Coulomb
SciTegic.value.DoubleValue
-9.270

@<SCITEGIC>MOL_PROPERTY
VdW
SciTegic.value.DoubleValue
2.216

@<SCITEGIC>MOL_PROPERTY
VdW6
SciTegic.value.DoubleValue
-8.967

@<SCITEGIC>MOL_PROPERTY
VdW12
SciTegic.value.DoubleValue
11.183

@<SCITEGIC>MOL_PROPERTY
Bond
SciTegic.value.DoubleValue
0.218

@<SCITEGIC>MOL_PROPERTY
Angle
SciTegic.value.DoubleValue
2.426

@<SCITEGIC>MOL_PROPERTY
Pdih
SciTegic.value.DoubleValue
9.745

@<SCITEGIC>MOL_PROPERTY
Idih
SciTegic.value.DoubleValue
0.000

@<SCITEGIC>MOL_PROPERTY
Tether
SciTegic.value.DoubleValue
0.000

@<TRIPOS>MOLECULE
guest-5_confgen4.mol2 : confsearch ligand conformer 404
          22          22           1
SMALL
USER_CHARGES
 
@<TRIPOS>ATOM
       1    C1      20.345104   17.923860   21.809287 C.3        1 MOL1        -0.1685
       2    H1      20.317146   17.738504   20.726862 H          1 MOL1         0.0832
       3    H2      20.649510   16.972649   22.266836 H          1 MOL1         0.0832
       4    C2      18.911549   18.269786   22.278252 C.3        1 MOL1        -0.1685
       5    H3      18.405016   18.861026   21.503437 H          1 MOL1         0.0832
       6    H4      18.342904   17.332705   22.351087 H          1 MOL1         0.0832
       7    C3      18.827480   19.014660   23.630894 C.3        1 MOL1        -0.1685
       8    H5      19.586765   18.643292   24.332611 H          1 MOL1         0.0832
       9    H6      17.854357   18.786305   24.086062 H          1 MOL1         0.0832
      10    C4      18.926281   20.553556   23.475601 C.3        1 MOL1        -0.1761
      11    H7      18.206450   20.886558   22.717006 H          1 MOL1         0.0832
      12    H8      18.602778   21.021799   24.414488 H          1 MOL1         0.0832
      13    C5      20.321123   21.115912   23.118853 C.3        1 MOL1         0.1218
      14    H9      20.180548   22.177504   22.869137 H          1 MOL1         0.0789
      15    C6      21.009255   20.448629   21.901603 C.3        1 MOL1        -0.1761
      16    H10     20.361364   20.526734   21.018985 H          1 MOL1         0.0832
      17    H11     21.904935   21.036955   21.664081 H          1 MOL1         0.0832
      18    C7      21.439761   18.973994   22.114519 C.3        1 MOL1        -0.1685
      19    H12     22.301434   18.760354   21.467758 H          1 MOL1         0.0832
      20    H13     21.804304   18.832304   23.140421 H          1 MOL1         0.0832
      21    O1      21.165896   21.037458   24.262630 O.3        1 MOL1        -0.5509
      22    H14     22.048259   21.353266   23.979815 H          1 MOL1         0.3779
@<TRIPOS>BOND
    1     1     2    1
    2     1     3    1
    3     1     4    1
    4     4     5    1
    5     4     6    1
    6     4     7    1
    7     7     8    1
    8     7     9    1
    9     7    10    1
   10    10    11    1
   11    10    12    1
   12    10    13    1
   13    13    14    1
   14    13    15    1
   15    15    16    1
   16    15    17    1
   17     1    18    1
   18    15    18    1
   19    18    19    1
   20    18    20    1
   21    13    21    1
   22    21    22    1
@<TRIPOS>SUBSTRUCTURE
       1 MOL1            1 RESIDUE      1      MOL     
@<SCITEGIC>MOL_PROPERTY
VConf Rank
SciTegic.value.IntegerValue
404

@<SCITEGIC>MOL_PROPERTY
Conf_Id
SciTegic.value.IntegerValue
95

@<SCITEGIC>MOL_PROPERTY
Delta U+W
SciTegic.value.DoubleValue
-2.289

@<SCITEGIC>MOL_PROPERTY
U+W
SciTegic.value.DoubleValue
4.134

@<SCITEGIC>MOL_PROPERTY
Grad RMS
SciTegic.value.DoubleValue
0.000000

@<SCITEGIC>MOL_PROPERTY
U
SciTegic.value.DoubleValue
6.373

@<SCITEGIC>MOL_PROPERTY
W
SciTegic.value.DoubleValue
-2.240

@<SCITEGIC>MOL_PROPERTY
W(PB)
SciTegic.value.DoubleValue
-4.254

@<SCITEGIC>MOL_PROPERTY
W(SA)
SciTegic.value.DoubleValue
2.015

@<SCITEGIC>MOL_PROPERTY
Valence
SciTegic.value.DoubleValue
12.093

@<SCITEGIC>MOL_PROPERTY
Coulomb
SciTegic.value.DoubleValue
-8.058

@<SCITEGIC>MOL_PROPERTY
VdW
SciTegic.value.DoubleValue
2.339

@<SCITEGIC>MOL_PROPERTY
VdW6
SciTegic.value.DoubleValue
-9.683

@<SCITEGIC>MOL_PROPERTY
VdW12
SciTegic.value.DoubleValue
12.022

@<SCITEGIC>MOL_PROPERTY
Bond
SciTegic.value.DoubleValue
0.268

@<SCITEGIC>MOL_PROPERTY
Angle
SciTegic.value.DoubleValue
3.005

@<SCITEGIC>MOL_PROPERTY
Pdih
SciTegic.value.DoubleValue
8.820

@<SCITEGIC>MOL_PROPERTY
Idih
SciTegic.value.DoubleValue
0.000

@<SCITEGIC>MOL_PROPERTY
Tether
SciTegic.value.DoubleValue
0.000

@<TRIPOS>MOLECULE
guest-5_confgen4.mol2 : confsearch ligand conformer 405
          22          22           1
SMALL
USER_CHARGES
 
@<TRIPOS>ATOM
       1    C1      20.206898   21.173110   21.592617 C.3        1 MOL1        -0.1685
       2    H1      19.710271   21.368685   20.632478 H          1 MOL1         0.0832
       3    H2      20.796970   22.073454   21.811673 H          1 MOL1         0.0832
       4    C2      21.169833   19.976569   21.404537 C.3        1 MOL1        -0.1685
       5    H3      20.722735   19.252800   20.709741 H          1 MOL1         0.0832
       6    H4      22.074655   20.344956   20.902155 H          1 MOL1         0.0832
       7    C3      21.578881   19.253223   22.708748 C.3        1 MOL1        -0.1685
       8    H5      21.711898   19.969814   23.530711 H          1 MOL1         0.0832
       9    H6      22.561164   18.789211   22.546766 H          1 MOL1         0.0832
      10    C4      20.586470   18.131453   23.106319 C.3        1 MOL1        -0.1761
      11    H7      20.410060   17.483859   22.237758 H          1 MOL1         0.0832
      12    H8      21.065546   17.488525   23.856060 H          1 MOL1         0.0832
      13    C5      19.220836   18.594803   23.663173 C.3        1 MOL1         0.1218
      14    H9      18.583956   17.700701   23.726939 H          1 MOL1         0.0789
      15    C6      18.468545   19.626597   22.785796 C.3        1 MOL1        -0.1761
      16    H10     18.311327   19.218525   21.779194 H          1 MOL1         0.0832
      17    H11     17.467507   19.751452   23.218420 H          1 MOL1         0.0832
      18    C7      19.132701   21.025300   22.696531 C.3        1 MOL1        -0.1685
      19    H12     18.352043   21.774976   22.510051 H          1 MOL1         0.0832
      20    H13     19.567005   21.294925   23.668283 H          1 MOL1         0.0832
      21    O1      19.397469   19.108425   24.979945 O.3        1 MOL1        -0.5509
      22    H14     19.889567   18.428453   25.483595 H          1 MOL1         0.3779
@<TRIPOS>BOND
    1     1     2    1
    2     1     3    1
    3     1     4    1
    4     4     5    1
    5     4     6    1
    6     4     7    1
    7     7     8    1
    8     7     9    1
    9     7    10    1
   10    10    11    1
   11    10    12    1
   12    10    13    1
   13    13    14    1
   14    13    15    1
   15    15    16    1
   16    15    17    1
   17     1    18    1
   18    15    18    1
   19    18    19    1
   20    18    20    1
   21    13    21    1
   22    21    22    1
@<TRIPOS>SUBSTRUCTURE
       1 MOL1            1 RESIDUE      1      MOL     
@<SCITEGIC>MOL_PROPERTY
VConf Rank
SciTegic.value.IntegerValue
405

@<SCITEGIC>MOL_PROPERTY
Conf_Id
SciTegic.value.IntegerValue
41

@<SCITEGIC>MOL_PROPERTY
Delta U+W
SciTegic.value.DoubleValue
-2.114

@<SCITEGIC>MOL_PROPERTY
U+W
SciTegic.value.DoubleValue
4.310

@<SCITEGIC>MOL_PROPERTY
Grad RMS
SciTegic.value.DoubleValue
0.000000

@<SCITEGIC>MOL_PROPERTY
U
SciTegic.value.DoubleValue
6.598

@<SCITEGIC>MOL_PROPERTY
W
SciTegic.value.DoubleValue
-2.289

@<SCITEGIC>MOL_PROPERTY
W(PB)
SciTegic.value.DoubleValue
-4.294

@<SCITEGIC>MOL_PROPERTY
W(SA)
SciTegic.value.DoubleValue
2.005

@<SCITEGIC>MOL_PROPERTY
Valence
SciTegic.value.DoubleValue
12.082

@<SCITEGIC>MOL_PROPERTY
Coulomb
SciTegic.value.DoubleValue
-7.801

@<SCITEGIC>MOL_PROPERTY
VdW
SciTegic.value.DoubleValue
2.317

@<SCITEGIC>MOL_PROPERTY
VdW6
SciTegic.value.DoubleValue
-9.658

@<SCITEGIC>MOL_PROPERTY
VdW12
SciTegic.value.DoubleValue
11.975

@<SCITEGIC>MOL_PROPERTY
Bond
SciTegic.value.DoubleValue
0.267

@<SCITEGIC>MOL_PROPERTY
Angle
SciTegic.value.DoubleValue
3.051

@<SCITEGIC>MOL_PROPERTY
Pdih
SciTegic.value.DoubleValue
8.764

@<SCITEGIC>MOL_PROPERTY
Idih
SciTegic.value.DoubleValue
0.000

@<SCITEGIC>MOL_PROPERTY
Tether
SciTegic.value.DoubleValue
0.000

@<TRIPOS>MOLECULE
guest-5_confgen4.mol2 : confsearch ligand conformer 406
          22          22           1
SMALL
USER_CHARGES
 
@<TRIPOS>ATOM
       1    C1      18.466474   19.187376   22.893737 C.3        1 MOL1        -0.1685
       2    H1      17.460454   18.747217   22.866672 H          1 MOL1         0.0832
       3    H2      18.474790   19.884763   23.742712 H          1 MOL1         0.0832
       4    C2      18.689307   19.942351   21.564171 C.3        1 MOL1        -0.1685
       5    H3      18.739790   19.221973   20.736470 H          1 MOL1         0.0832
       6    H4      17.809371   20.568873   21.364814 H          1 MOL1         0.0832
       7    C3      19.941814   20.845555   21.538290 C.3        1 MOL1        -0.1685
       8    H5      19.795789   21.692464   22.221892 H          1 MOL1         0.0832
       9    H6      20.019840   21.287106   20.535759 H          1 MOL1         0.0832
      10    C4      21.280117   20.127232   21.861006 C.3        1 MOL1        -0.1761
      11    H7      21.390528   19.235563   21.230931 H          1 MOL1         0.0832
      12    H8      22.096789   20.799620   21.568558 H          1 MOL1         0.0832
      13    C5      21.507917   19.752173   23.348107 C.3        1 MOL1         0.1218
      14    H9      22.584502   19.559984   23.463456 H          1 MOL1         0.0789
      15    C6      20.786139   18.471155   23.841228 C.3        1 MOL1        -0.1761
      16    H10     21.493130   17.634582   23.767932 H          1 MOL1         0.0832
      17    H11     20.569901   18.572428   24.912889 H          1 MOL1         0.0832
      18    C7      19.486957   18.048446   23.111610 C.3        1 MOL1        -0.1685
      19    H12     19.734836   17.582107   22.148543 H          1 MOL1         0.0832
      20    H13     19.009552   17.258293   23.706943 H          1 MOL1         0.0832
      21    O1      21.172626   20.847889   24.195400 O.3        1 MOL1        -0.5509
      22    H14     21.373266   20.568480   25.111688 H          1 MOL1         0.3779
@<TRIPOS>BOND
    1     1     2    1
    2     1     3    1
    3     1     4    1
    4     4     5    1
    5     4     6    1
    6     4     7    1
    7     7     8    1
    8     7     9    1
    9     7    10    1
   10    10    11    1
   11    10    12    1
   12    10    13    1
   13    13    14    1
   14    13    15    1
   15    15    16    1
   16    15    17    1
   17     1    18    1
   18    15    18    1
   19    18    19    1
   20    18    20    1
   21    13    21    1
   22    21    22    1
@<TRIPOS>SUBSTRUCTURE
       1 MOL1            1 RESIDUE      1      MOL     
@<SCITEGIC>MOL_PROPERTY
VConf Rank
SciTegic.value.IntegerValue
406

@<SCITEGIC>MOL_PROPERTY
Conf_Id
SciTegic.value.IntegerValue
104

@<SCITEGIC>MOL_PROPERTY
Delta U+W
SciTegic.value.DoubleValue
-1.172

@<SCITEGIC>MOL_PROPERTY
U+W
SciTegic.value.DoubleValue
5.252

@<SCITEGIC>MOL_PROPERTY
Grad RMS
SciTegic.value.DoubleValue
0.000000

@<SCITEGIC>MOL_PROPERTY
U
SciTegic.value.DoubleValue
7.482

@<SCITEGIC>MOL_PROPERTY
W
SciTegic.value.DoubleValue
-2.230

@<SCITEGIC>MOL_PROPERTY
W(PB)
SciTegic.value.DoubleValue
-4.220

@<SCITEGIC>MOL_PROPERTY
W(SA)
SciTegic.value.DoubleValue
1.990

@<SCITEGIC>MOL_PROPERTY
Valence
SciTegic.value.DoubleValue
12.309

@<SCITEGIC>MOL_PROPERTY
Coulomb
SciTegic.value.DoubleValue
-7.084

@<SCITEGIC>MOL_PROPERTY
VdW
SciTegic.value.DoubleValue
2.258

@<SCITEGIC>MOL_PROPERTY
VdW6
SciTegic.value.DoubleValue
-9.770

@<SCITEGIC>MOL_PROPERTY
VdW12
SciTegic.value.DoubleValue
12.028

@<SCITEGIC>MOL_PROPERTY
Bond
SciTegic.value.DoubleValue
0.284

@<SCITEGIC>MOL_PROPERTY
Angle
SciTegic.value.DoubleValue
3.491

@<SCITEGIC>MOL_PROPERTY
Pdih
SciTegic.value.DoubleValue
8.535

@<SCITEGIC>MOL_PROPERTY
Idih
SciTegic.value.DoubleValue
0.000

@<SCITEGIC>MOL_PROPERTY
Tether
SciTegic.value.DoubleValue
0.000

@<TRIPOS>MOLECULE
guest-5_confgen4.mol2 : confsearch ligand conformer 407
          22          22           1
SMALL
USER_CHARGES
 
@<TRIPOS>ATOM
       1    C1      21.226130   18.785083   21.825830 C.3        1 MOL1        -0.1685
       2    H1      21.243291   17.941371   22.528923 H          1 MOL1         0.0832
       3    H2      21.986178   18.560006   21.065169 H          1 MOL1         0.0832
       4    C2      21.636261   20.098813   22.529669 C.3        1 MOL1        -0.1685
       5    H3      22.731321   20.122688   22.616402 H          1 MOL1         0.0832
       6    H4      21.383941   20.950873   21.884947 H          1 MOL1         0.0832
       7    C3      21.045951   20.314263   23.946281 C.3        1 MOL1        -0.1685
       8    H5      21.013635   21.393675   24.149111 H          1 MOL1         0.0832
       9    H6      21.749078   19.900773   24.682194 H          1 MOL1         0.0832
      10    C4      19.649935   19.699356   24.236503 C.3        1 MOL1        -0.1761
      11    H7      19.764796   18.625709   24.434100 H          1 MOL1         0.0832
      12    H8      19.280317   20.127055   25.177490 H          1 MOL1         0.0832
      13    C5      18.557675   19.891842   23.159517 C.3        1 MOL1         0.1218
      14    H9      17.584099   19.771215   23.655985 H          1 MOL1         0.0789
      15    C6      18.623593   18.827606   22.040890 C.3        1 MOL1        -0.1761
      16    H10     18.566521   17.831762   22.499256 H          1 MOL1         0.0832
      17    H11     17.719429   18.921775   21.425370 H          1 MOL1         0.0832
      18    C7      19.858788   18.880604   21.108006 C.3        1 MOL1        -0.1685
      19    H12     19.781735   18.044072   20.400200 H          1 MOL1         0.0832
      20    H13     19.823015   19.790665   20.494013 H          1 MOL1         0.0832
      21    O1      18.632391   21.194301   22.600779 O.3        1 MOL1        -0.5509
      22    H14     19.545627   21.254013   22.256222 H          1 MOL1         0.3779
@<TRIPOS>BOND
    1     1     2    1
    2     1     3    1
    3     1     4    1
    4     4     5    1
    5     4     6    1
    6     4     7    1
    7     7     8    1
    8     7     9    1
    9     7    10    1
   10    10    11    1
   11    10    12    1
   12    10    13    1
   13    13    14    1
   14    13    15    1
   15    15    16    1
   16    15    17    1
   17     1    18    1
   18    15    18    1
   19    18    19    1
   20    18    20    1
   21    13    21    1
   22    21    22    1
@<TRIPOS>SUBSTRUCTURE
       1 MOL1            1 RESIDUE      1      MOL     
@<SCITEGIC>MOL_PROPERTY
VConf Rank
SciTegic.value.IntegerValue
407

@<SCITEGIC>MOL_PROPERTY
Conf_Id
SciTegic.value.IntegerValue
99

@<SCITEGIC>MOL_PROPERTY
Delta U+W
SciTegic.value.DoubleValue
-3.852

@<SCITEGIC>MOL_PROPERTY
U+W
SciTegic.value.DoubleValue
2.572

@<SCITEGIC>MOL_PROPERTY
Grad RMS
SciTegic.value.DoubleValue
0.000000

@<SCITEGIC>MOL_PROPERTY
U
SciTegic.value.DoubleValue
3.922

@<SCITEGIC>MOL_PROPERTY
W
SciTegic.value.DoubleValue
-1.350

@<SCITEGIC>MOL_PROPERTY
W(PB)
SciTegic.value.DoubleValue
-3.345

@<SCITEGIC>MOL_PROPERTY
W(SA)
SciTegic.value.DoubleValue
1.995

@<SCITEGIC>MOL_PROPERTY
Valence
SciTegic.value.DoubleValue
12.571

@<SCITEGIC>MOL_PROPERTY
Coulomb
SciTegic.value.DoubleValue
-10.581

@<SCITEGIC>MOL_PROPERTY
VdW
SciTegic.value.DoubleValue
1.932

@<SCITEGIC>MOL_PROPERTY
VdW6
SciTegic.value.DoubleValue
-10.483

@<SCITEGIC>MOL_PROPERTY
VdW12
SciTegic.value.DoubleValue
12.415

@<SCITEGIC>MOL_PROPERTY
Bond
SciTegic.value.DoubleValue
0.268

@<SCITEGIC>MOL_PROPERTY
Angle
SciTegic.value.DoubleValue
3.728

@<SCITEGIC>MOL_PROPERTY
Pdih
SciTegic.value.DoubleValue
8.575

@<SCITEGIC>MOL_PROPERTY
Idih
SciTegic.value.DoubleValue
0.000

@<SCITEGIC>MOL_PROPERTY
Tether
SciTegic.value.DoubleValue
0.000

@<TRIPOS>MOLECULE
guest-5_confgen4.mol2 : confsearch ligand conformer 408
          22          22           1
SMALL
USER_CHARGES
 
@<TRIPOS>ATOM
       1    C1      19.899949   18.321423   23.741602 C.3        1 MOL1        -0.1685
       2    H1      19.298245   17.541549   24.228468 H          1 MOL1         0.0832
       3    H2      20.910526   18.197501   24.153225 H          1 MOL1         0.0832
       4    C2      19.316953   19.703704   24.157853 C.3        1 MOL1        -0.1685
       5    H3      18.463012   19.522126   24.825015 H          1 MOL1         0.0832
       6    H4      20.044183   20.251784   24.771692 H          1 MOL1         0.0832
       7    C3      18.827124   20.610518   23.000051 C.3        1 MOL1        -0.1685
       8    H5      18.270281   21.453237   23.431879 H          1 MOL1         0.0832
       9    H6      18.086838   20.071857   22.395574 H          1 MOL1         0.0832
      10    C4      19.932903   21.194446   22.077494 C.3        1 MOL1        -0.1761
      11    H7      19.472306   21.463956   21.118351 H          1 MOL1         0.0832
      12    H8      20.279729   22.142731   22.509308 H          1 MOL1         0.0832
      13    C5      21.183411   20.326172   21.793789 C.3        1 MOL1         0.1218
      14    H9      21.721824   20.803595   20.962554 H          1 MOL1         0.0789
      15    C6      20.918201   18.859215   21.374448 C.3        1 MOL1        -0.1761
      16    H10     20.574283   18.852686   20.332134 H          1 MOL1         0.0832
      17    H11     21.884877   18.338227   21.364179 H          1 MOL1         0.0832
      18    C7      19.918839   18.022606   22.220712 C.3        1 MOL1        -0.1685
      19    H12     18.907016   18.127971   21.810004 H          1 MOL1         0.0832
      20    H13     20.164991   16.961424   22.079196 H          1 MOL1         0.0832
      21    O1      22.045701   20.350822   22.920328 O.3        1 MOL1        -0.5509
      22    H14     21.524681   19.918351   23.626331 H          1 MOL1         0.3779
@<TRIPOS>BOND
    1     1     2    1
    2     1     3    1
    3     1     4    1
    4     4     5    1
    5     4     6    1
    6     4     7    1
    7     7     8    1
    8     7     9    1
    9     7    10    1
   10    10    11    1
   11    10    12    1
   12    10    13    1
   13    13    14    1
   14    13    15    1
   15    15    16    1
   16    15    17    1
   17     1    18    1
   18    15    18    1
   19    18    19    1
   20    18    20    1
   21    13    21    1
   22    21    22    1
@<TRIPOS>SUBSTRUCTURE
       1 MOL1            1 RESIDUE      1      MOL     
@<SCITEGIC>MOL_PROPERTY
VConf Rank
SciTegic.value.IntegerValue
408

@<SCITEGIC>MOL_PROPERTY
Conf_Id
SciTegic.value.IntegerValue
98

@<SCITEGIC>MOL_PROPERTY
Delta U+W
SciTegic.value.DoubleValue
0.930

@<SCITEGIC>MOL_PROPERTY
U+W
SciTegic.value.DoubleValue
7.353

@<SCITEGIC>MOL_PROPERTY
Grad RMS
SciTegic.value.DoubleValue
0.000000

@<SCITEGIC>MOL_PROPERTY
U
SciTegic.value.DoubleValue
8.455

@<SCITEGIC>MOL_PROPERTY
W
SciTegic.value.DoubleValue
-1.102

@<SCITEGIC>MOL_PROPERTY
W(PB)
SciTegic.value.DoubleValue
-3.101

@<SCITEGIC>MOL_PROPERTY
W(SA)
SciTegic.value.DoubleValue
2.000

@<SCITEGIC>MOL_PROPERTY
Valence
SciTegic.value.DoubleValue
15.601

@<SCITEGIC>MOL_PROPERTY
Coulomb
SciTegic.value.DoubleValue
-10.573

@<SCITEGIC>MOL_PROPERTY
VdW
SciTegic.value.DoubleValue
3.427

@<SCITEGIC>MOL_PROPERTY
VdW6
SciTegic.value.DoubleValue
-11.360

@<SCITEGIC>MOL_PROPERTY
VdW12
SciTegic.value.DoubleValue
14.787

@<SCITEGIC>MOL_PROPERTY
Bond
SciTegic.value.DoubleValue
0.471

@<SCITEGIC>MOL_PROPERTY
Angle
SciTegic.value.DoubleValue
5.445

@<SCITEGIC>MOL_PROPERTY
Pdih
SciTegic.value.DoubleValue
9.685

@<SCITEGIC>MOL_PROPERTY
Idih
SciTegic.value.DoubleValue
0.000

@<SCITEGIC>MOL_PROPERTY
Tether
SciTegic.value.DoubleValue
0.000

@<TRIPOS>MOLECULE
guest-5_confgen4.mol2 : confsearch ligand conformer 409
          22          22           1
SMALL
USER_CHARGES
 
@<TRIPOS>ATOM
       1    C1      21.582571   20.224845   22.802529 C.3        1 MOL1        -0.1685
       2    H1      21.979208   19.280971   22.406850 H          1 MOL1         0.0832
       3    H2      22.460572   20.873170   22.927034 H          1 MOL1         0.0832
       4    C2      20.946483   19.983050   24.195040 C.3        1 MOL1        -0.1685
       5    H3      21.729456   19.577434   24.850253 H          1 MOL1         0.0832
       6    H4      20.656243   20.945077   24.638762 H          1 MOL1         0.0832
       7    C3      19.731962   19.014607   24.236301 C.3        1 MOL1        -0.1685
       8    H5      18.798923   19.584928   24.332154 H          1 MOL1         0.0832
       9    H6      19.797342   18.422420   25.159163 H          1 MOL1         0.0832
      10    C4      19.623669   18.044687   23.029969 C.3        1 MOL1        -0.1761
      11    H7      20.580481   17.523908   22.899868 H          1 MOL1         0.0832
      12    H8      18.905412   17.254262   23.286334 H          1 MOL1         0.0832
      13    C5      19.203336   18.687765   21.675849 C.3        1 MOL1         0.1218
      14    H9      19.873417   18.300877   20.894582 H          1 MOL1         0.0789
      15    C6      19.240402   20.235628   21.621040 C.3        1 MOL1        -0.1761
      16    H10     18.810107   20.567959   20.667384 H          1 MOL1         0.0832
      17    H11     18.578298   20.648204   22.391747 H          1 MOL1         0.0832
      18    C7      20.646749   20.871427   21.754289 C.3        1 MOL1        -0.1685
      19    H12     21.148607   20.831988   20.777869 H          1 MOL1         0.0832
      20    H13     20.526018   21.937921   21.988139 H          1 MOL1         0.0832
      21    O1      17.872003   18.282409   21.378505 O.3        1 MOL1        -0.5509
      22    H14     17.653995   18.652264   20.497677 H          1 MOL1         0.3779
@<TRIPOS>BOND
    1     1     2    1
    2     1     3    1
    3     1     4    1
    4     4     5    1
    5     4     6    1
    6     4     7    1
    7     7     8    1
    8     7     9    1
    9     7    10    1
   10    10    11    1
   11    10    12    1
   12    10    13    1
   13    13    14    1
   14    13    15    1
   15    15    16    1
   16    15    17    1
   17     1    18    1
   18    15    18    1
   19    18    19    1
   20    18    20    1
   21    13    21    1
   22    21    22    1
@<TRIPOS>SUBSTRUCTURE
       1 MOL1            1 RESIDUE      1      MOL     
@<SCITEGIC>MOL_PROPERTY
VConf Rank
SciTegic.value.IntegerValue
409

@<SCITEGIC>MOL_PROPERTY
Conf_Id
SciTegic.value.IntegerValue
141

@<SCITEGIC>MOL_PROPERTY
Delta U+W
SciTegic.value.DoubleValue
0.000

@<SCITEGIC>MOL_PROPERTY
U+W
SciTegic.value.DoubleValue
6.423

@<SCITEGIC>MOL_PROPERTY
Grad RMS
SciTegic.value.DoubleValue
0.000000

@<SCITEGIC>MOL_PROPERTY
U
SciTegic.value.DoubleValue
8.781

@<SCITEGIC>MOL_PROPERTY
W
SciTegic.value.DoubleValue
-2.358

@<SCITEGIC>MOL_PROPERTY
W(PB)
SciTegic.value.DoubleValue
-4.373

@<SCITEGIC>MOL_PROPERTY
W(SA)
SciTegic.value.DoubleValue
2.015

@<SCITEGIC>MOL_PROPERTY
Valence
SciTegic.value.DoubleValue
13.328

@<SCITEGIC>MOL_PROPERTY
Coulomb
SciTegic.value.DoubleValue
-8.387

@<SCITEGIC>MOL_PROPERTY
VdW
SciTegic.value.DoubleValue
3.840

@<SCITEGIC>MOL_PROPERTY
VdW6
SciTegic.value.DoubleValue
-9.744

@<SCITEGIC>MOL_PROPERTY
VdW12
SciTegic.value.DoubleValue
13.584

@<SCITEGIC>MOL_PROPERTY
Bond
SciTegic.value.DoubleValue
0.436

@<SCITEGIC>MOL_PROPERTY
Angle
SciTegic.value.DoubleValue
3.478

@<SCITEGIC>MOL_PROPERTY
Pdih
SciTegic.value.DoubleValue
9.415

@<SCITEGIC>MOL_PROPERTY
Idih
SciTegic.value.DoubleValue
0.000

@<SCITEGIC>MOL_PROPERTY
Tether
SciTegic.value.DoubleValue
0.000

@<TRIPOS>MOLECULE
guest-5_confgen4.mol2 : confsearch ligand conformer 410
          22          22           1
SMALL
USER_CHARGES
 
@<TRIPOS>ATOM
       1    C1      20.829865   20.910289   21.849455 C.3        1 MOL1        -0.1685
       2    H1      20.337042   21.621009   22.526663 H          1 MOL1         0.0832
       3    H2      21.507108   21.507156   21.223358 H          1 MOL1         0.0832
       4    C2      19.800151   20.232557   20.913493 C.3        1 MOL1        -0.1685
       5    H3      19.412384   20.986861   20.215270 H          1 MOL1         0.0832
       6    H4      20.310511   19.484580   20.291446 H          1 MOL1         0.0832
       7    C3      18.597596   19.571015   21.625219 C.3        1 MOL1        -0.1685
       8    H5      17.982041   19.071520   20.864677 H          1 MOL1         0.0832
       9    H6      17.958890   20.350347   22.063005 H          1 MOL1         0.0832
      10    C4      18.970801   18.537348   22.715828 C.3        1 MOL1        -0.1761
      11    H7      18.058994   17.982504   22.973198 H          1 MOL1         0.0832
      12    H8      19.678099   17.796374   22.321259 H          1 MOL1         0.0832
      13    C5      19.534703   19.196573   23.994525 C.3        1 MOL1         0.1218
      14    H9      19.044548   20.172247   24.123567 H          1 MOL1         0.0789
      15    C6      21.064099   19.420284   23.980485 C.3        1 MOL1        -0.1761
      16    H10     21.297863   20.159478   24.757528 H          1 MOL1         0.0832
      17    H11     21.569640   18.494021   24.284746 H          1 MOL1         0.0832
      18    C7      21.683966   19.892981   22.641691 C.3        1 MOL1        -0.1685
      19    H12     22.662228   20.342346   22.860545 H          1 MOL1         0.0832
      20    H13     21.896097   19.021752   22.007128 H          1 MOL1         0.0832
      21    O1      19.219825   18.373961   25.111387 O.3        1 MOL1        -0.5509
      22    H14     18.242606   18.307307   25.146300 H          1 MOL1         0.3779
@<TRIPOS>BOND
    1     1     2    1
    2     1     3    1
    3     1     4    1
    4     4     5    1
    5     4     6    1
    6     4     7    1
    7     7     8    1
    8     7     9    1
    9     7    10    1
   10    10    11    1
   11    10    12    1
   12    10    13    1
   13    13    14    1
   14    13    15    1
   15    15    16    1
   16    15    17    1
   17     1    18    1
   18    15    18    1
   19    18    19    1
   20    18    20    1
   21    13    21    1
   22    21    22    1
@<TRIPOS>SUBSTRUCTURE
       1 MOL1            1 RESIDUE      1      MOL     
@<SCITEGIC>MOL_PROPERTY
VConf Rank
SciTegic.value.IntegerValue
410

@<SCITEGIC>MOL_PROPERTY
Conf_Id
SciTegic.value.IntegerValue
144

@<SCITEGIC>MOL_PROPERTY
Delta U+W
SciTegic.value.DoubleValue
-3.291

@<SCITEGIC>MOL_PROPERTY
U+W
SciTegic.value.DoubleValue
3.132

@<SCITEGIC>MOL_PROPERTY
Grad RMS
SciTegic.value.DoubleValue
0.000000

@<SCITEGIC>MOL_PROPERTY
U
SciTegic.value.DoubleValue
5.411

@<SCITEGIC>MOL_PROPERTY
W
SciTegic.value.DoubleValue
-2.279

@<SCITEGIC>MOL_PROPERTY
W(PB)
SciTegic.value.DoubleValue
-4.300

@<SCITEGIC>MOL_PROPERTY
W(SA)
SciTegic.value.DoubleValue
2.021

@<SCITEGIC>MOL_PROPERTY
Valence
SciTegic.value.DoubleValue
11.909

@<SCITEGIC>MOL_PROPERTY
Coulomb
SciTegic.value.DoubleValue
-8.733

@<SCITEGIC>MOL_PROPERTY
VdW
SciTegic.value.DoubleValue
2.236

@<SCITEGIC>MOL_PROPERTY
VdW6
SciTegic.value.DoubleValue
-8.936

@<SCITEGIC>MOL_PROPERTY
VdW12
SciTegic.value.DoubleValue
11.172

@<SCITEGIC>MOL_PROPERTY
Bond
SciTegic.value.DoubleValue
0.223

@<SCITEGIC>MOL_PROPERTY
Angle
SciTegic.value.DoubleValue
2.457

@<SCITEGIC>MOL_PROPERTY
Pdih
SciTegic.value.DoubleValue
9.228

@<SCITEGIC>MOL_PROPERTY
Idih
SciTegic.value.DoubleValue
0.000

@<SCITEGIC>MOL_PROPERTY
Tether
SciTegic.value.DoubleValue
0.000

@<TRIPOS>MOLECULE
guest-5_confgen4.mol2 : confsearch ligand conformer 411
          22          22           1
SMALL
USER_CHARGES
 
@<TRIPOS>ATOM
       1    C1      19.177466   21.081688   22.361842 C.3        1 MOL1        -0.1685
       2    H1      18.972643   22.148296   22.196657 H          1 MOL1         0.0832
       3    H2      18.206027   20.572588   22.300150 H          1 MOL1         0.0832
       4    C2      19.792875   20.925605   23.772155 C.3        1 MOL1        -0.1685
       5    H3      20.868879   21.142399   23.727534 H          1 MOL1         0.0832
       6    H4      19.366758   21.693098   24.432744 H          1 MOL1         0.0832
       7    C3      19.568179   19.546131   24.437351 C.3        1 MOL1        -0.1685
       8    H5      18.579765   19.537295   24.916804 H          1 MOL1         0.0832
       9    H6      20.296114   19.436780   25.252931 H          1 MOL1         0.0832
      10    C4      19.663936   18.311560   23.507402 C.3        1 MOL1        -0.1761
      11    H7      19.818223   17.426394   24.139183 H          1 MOL1         0.0832
      12    H8      18.696885   18.158162   23.011242 H          1 MOL1         0.0832
      13    C5      20.779490   18.384415   22.440713 C.3        1 MOL1         0.1218
      14    H9      21.645966   18.922907   22.850244 H          1 MOL1         0.0789
      15    C6      20.310005   19.071699   21.138329 C.3        1 MOL1        -0.1761
      16    H10     21.045415   18.868162   20.348472 H          1 MOL1         0.0832
      17    H11     19.369705   18.615856   20.801982 H          1 MOL1         0.0832
      18    C7      20.124473   20.604676   21.234619 C.3        1 MOL1        -0.1685
      19    H12     21.105923   21.083212   21.355799 H          1 MOL1         0.0832
      20    H13     19.733222   20.963969   20.273048 H          1 MOL1         0.0832
      21    O1      21.174627   17.058236   22.116171 O.3        1 MOL1        -0.5509
      22    H14     20.379498   16.612500   21.758053 H          1 MOL1         0.3779
@<TRIPOS>BOND
    1     1     2    1
    2     1     3    1
    3     1     4    1
    4     4     5    1
    5     4     6    1
    6     4     7    1
    7     7     8    1
    8     7     9    1
    9     7    10    1
   10    10    11    1
   11    10    12    1
   12    10    13    1
   13    13    14    1
   14    13    15    1
   15    15    16    1
   16    15    17    1
   17     1    18    1
   18    15    18    1
   19    18    19    1
   20    18    20    1
   21    13    21    1
   22    21    22    1
@<TRIPOS>SUBSTRUCTURE
       1 MOL1            1 RESIDUE      1      MOL     
@<SCITEGIC>MOL_PROPERTY
VConf Rank
SciTegic.value.IntegerValue
411

@<SCITEGIC>MOL_PROPERTY
Conf_Id
SciTegic.value.IntegerValue
76

@<SCITEGIC>MOL_PROPERTY
Delta U+W
SciTegic.value.DoubleValue
-3.175

@<SCITEGIC>MOL_PROPERTY
U+W
SciTegic.value.DoubleValue
3.248

@<SCITEGIC>MOL_PROPERTY
Grad RMS
SciTegic.value.DoubleValue
0.000000

@<SCITEGIC>MOL_PROPERTY
U
SciTegic.value.DoubleValue
5.336

@<SCITEGIC>MOL_PROPERTY
W
SciTegic.value.DoubleValue
-2.088

@<SCITEGIC>MOL_PROPERTY
W(PB)
SciTegic.value.DoubleValue
-4.098

@<SCITEGIC>MOL_PROPERTY
W(SA)
SciTegic.value.DoubleValue
2.010

@<SCITEGIC>MOL_PROPERTY
Valence
SciTegic.value.DoubleValue
12.390

@<SCITEGIC>MOL_PROPERTY
Coulomb
SciTegic.value.DoubleValue
-9.270

@<SCITEGIC>MOL_PROPERTY
VdW
SciTegic.value.DoubleValue
2.216

@<SCITEGIC>MOL_PROPERTY
VdW6
SciTegic.value.DoubleValue
-8.967

@<SCITEGIC>MOL_PROPERTY
VdW12
SciTegic.value.DoubleValue
11.183

@<SCITEGIC>MOL_PROPERTY
Bond
SciTegic.value.DoubleValue
0.218

@<SCITEGIC>MOL_PROPERTY
Angle
SciTegic.value.DoubleValue
2.426

@<SCITEGIC>MOL_PROPERTY
Pdih
SciTegic.value.DoubleValue
9.745

@<SCITEGIC>MOL_PROPERTY
Idih
SciTegic.value.DoubleValue
0.000

@<SCITEGIC>MOL_PROPERTY
Tether
SciTegic.value.DoubleValue
0.000

@<TRIPOS>MOLECULE
guest-5_confgen4.mol2 : confsearch ligand conformer 412
          22          22           1
SMALL
USER_CHARGES
 
@<TRIPOS>ATOM
       1    C1      20.045869   18.208514   23.990282 C.3        1 MOL1        -0.1685
       2    H1      19.332474   17.377282   24.073364 H          1 MOL1         0.0832
       3    H2      20.792325   18.040615   24.778589 H          1 MOL1         0.0832
       4    C2      19.290547   19.526057   24.287338 C.3        1 MOL1        -0.1685
       5    H3      18.272459   19.464911   23.879618 H          1 MOL1         0.0832
       6    H4      19.166442   19.608118   25.375754 H          1 MOL1         0.0832
       7    C3      19.978859   20.807520   23.762340 C.3        1 MOL1        -0.1685
       8    H5      21.070603   20.737017   23.862141 H          1 MOL1         0.0832
       9    H6      19.668295   21.646772   24.399126 H          1 MOL1         0.0832
      10    C4      19.579618   21.148677   22.304156 C.3        1 MOL1        -0.1761
      11    H7      18.485483   21.141358   22.218562 H          1 MOL1         0.0832
      12    H8      19.885092   22.181232   22.089844 H          1 MOL1         0.0832
      13    C5      20.170983   20.238881   21.203404 C.3        1 MOL1         0.1218
      14    H9      19.653740   20.496099   20.267778 H          1 MOL1         0.0789
      15    C6      19.975340   18.718615   21.429247 C.3        1 MOL1        -0.1761
      16    H10     18.906491   18.492956   21.536568 H          1 MOL1         0.0832
      17    H11     20.295892   18.204063   20.514222 H          1 MOL1         0.0832
      18    C7      20.765579   18.122649   22.623216 C.3        1 MOL1        -0.1685
      19    H12     20.972284   17.063778   22.417091 H          1 MOL1         0.0832
      20    H13     21.750642   18.601456   22.699623 H          1 MOL1         0.0832
      21    O1      21.554330   20.535793   21.041485 O.3        1 MOL1        -0.5509
      22    H14     21.898875   19.905443   20.376480 H          1 MOL1         0.3779
@<TRIPOS>BOND
    1     1     2    1
    2     1     3    1
    3     1     4    1
    4     4     5    1
    5     4     6    1
    6     4     7    1
    7     7     8    1
    8     7     9    1
    9     7    10    1
   10    10    11    1
   11    10    12    1
   12    10    13    1
   13    13    14    1
   14    13    15    1
   15    15    16    1
   16    15    17    1
   17     1    18    1
   18    15    18    1
   19    18    19    1
   20    18    20    1
   21    13    21    1
   22    21    22    1
@<TRIPOS>SUBSTRUCTURE
       1 MOL1            1 RESIDUE      1      MOL     
@<SCITEGIC>MOL_PROPERTY
VConf Rank
SciTegic.value.IntegerValue
412

@<SCITEGIC>MOL_PROPERTY
Conf_Id
SciTegic.value.IntegerValue
95

@<SCITEGIC>MOL_PROPERTY
Delta U+W
SciTegic.value.DoubleValue
-2.289

@<SCITEGIC>MOL_PROPERTY
U+W
SciTegic.value.DoubleValue
4.134

@<SCITEGIC>MOL_PROPERTY
Grad RMS
SciTegic.value.DoubleValue
0.000000

@<SCITEGIC>MOL_PROPERTY
U
SciTegic.value.DoubleValue
6.373

@<SCITEGIC>MOL_PROPERTY
W
SciTegic.value.DoubleValue
-2.240

@<SCITEGIC>MOL_PROPERTY
W(PB)
SciTegic.value.DoubleValue
-4.254

@<SCITEGIC>MOL_PROPERTY
W(SA)
SciTegic.value.DoubleValue
2.015

@<SCITEGIC>MOL_PROPERTY
Valence
SciTegic.value.DoubleValue
12.093

@<SCITEGIC>MOL_PROPERTY
Coulomb
SciTegic.value.DoubleValue
-8.058

@<SCITEGIC>MOL_PROPERTY
VdW
SciTegic.value.DoubleValue
2.339

@<SCITEGIC>MOL_PROPERTY
VdW6
SciTegic.value.DoubleValue
-9.683

@<SCITEGIC>MOL_PROPERTY
VdW12
SciTegic.value.DoubleValue
12.022

@<SCITEGIC>MOL_PROPERTY
Bond
SciTegic.value.DoubleValue
0.268

@<SCITEGIC>MOL_PROPERTY
Angle
SciTegic.value.DoubleValue
3.005

@<SCITEGIC>MOL_PROPERTY
Pdih
SciTegic.value.DoubleValue
8.820

@<SCITEGIC>MOL_PROPERTY
Idih
SciTegic.value.DoubleValue
0.000

@<SCITEGIC>MOL_PROPERTY
Tether
SciTegic.value.DoubleValue
0.000

@<TRIPOS>MOLECULE
guest-5_confgen4.mol2 : confsearch ligand conformer 413
          22          22           1
SMALL
USER_CHARGES
 
@<TRIPOS>ATOM
       1    C1      21.322540   18.581258   21.745758 C.3        1 MOL1        -0.1685
       2    H1      21.343765   17.490254   21.619214 H          1 MOL1         0.0832
       3    H2      22.174310   18.964859   21.167720 H          1 MOL1         0.0832
       4    C2      21.549317   18.899309   23.243004 C.3        1 MOL1        -0.1685
       5    H3      21.058417   18.133166   23.858246 H          1 MOL1         0.0832
       6    H4      22.623152   18.799657   23.452158 H          1 MOL1         0.0832
       7    C3      21.077983   20.301485   23.693850 C.3        1 MOL1        -0.1685
       8    H5      21.272662   21.051101   22.914751 H          1 MOL1         0.0832
       9    H6      21.680904   20.600286   24.561969 H          1 MOL1         0.0832
      10    C4      19.589198   20.321939   24.123278 C.3        1 MOL1        -0.1761
      11    H7      19.410174   19.507121   24.836663 H          1 MOL1         0.0832
      12    H8      19.398210   21.246374   24.683568 H          1 MOL1         0.0832
      13    C5      18.549294   20.219204   22.984075 C.3        1 MOL1         0.1218
      14    H9      17.569517   20.071335   23.460806 H          1 MOL1         0.0789
      15    C6      18.760885   19.037353   22.004897 C.3        1 MOL1        -0.1761
      16    H10     18.763742   18.089055   22.557356 H          1 MOL1         0.0832
      17    H11     17.882199   18.999106   21.348181 H          1 MOL1         0.0832
      18    C7      20.025313   19.138497   21.112466 C.3        1 MOL1        -0.1685
      19    H12     19.842803   18.589361   20.179000 H          1 MOL1         0.0832
      20    H13     20.185123   20.181417   20.808494 H          1 MOL1         0.0832
      21    O1      18.512232   21.448906   22.266194 O.3        1 MOL1        -0.5509
      22    H14     18.394596   22.158775   22.929845 H          1 MOL1         0.3779
@<TRIPOS>BOND
    1     1     2    1
    2     1     3    1
    3     1     4    1
    4     4     5    1
    5     4     6    1
    6     4     7    1
    7     7     8    1
    8     7     9    1
    9     7    10    1
   10    10    11    1
   11    10    12    1
   12    10    13    1
   13    13    14    1
   14    13    15    1
   15    15    16    1
   16    15    17    1
   17     1    18    1
   18    15    18    1
   19    18    19    1
   20    18    20    1
   21    13    21    1
   22    21    22    1
@<TRIPOS>SUBSTRUCTURE
       1 MOL1            1 RESIDUE      1      MOL     
@<SCITEGIC>MOL_PROPERTY
VConf Rank
SciTegic.value.IntegerValue
413

@<SCITEGIC>MOL_PROPERTY
Conf_Id
SciTegic.value.IntegerValue
41

@<SCITEGIC>MOL_PROPERTY
Delta U+W
SciTegic.value.DoubleValue
-2.114

@<SCITEGIC>MOL_PROPERTY
U+W
SciTegic.value.DoubleValue
4.310

@<SCITEGIC>MOL_PROPERTY
Grad RMS
SciTegic.value.DoubleValue
0.000000

@<SCITEGIC>MOL_PROPERTY
U
SciTegic.value.DoubleValue
6.598

@<SCITEGIC>MOL_PROPERTY
W
SciTegic.value.DoubleValue
-2.289

@<SCITEGIC>MOL_PROPERTY
W(PB)
SciTegic.value.DoubleValue
-4.294

@<SCITEGIC>MOL_PROPERTY
W(SA)
SciTegic.value.DoubleValue
2.005

@<SCITEGIC>MOL_PROPERTY
Valence
SciTegic.value.DoubleValue
12.082

@<SCITEGIC>MOL_PROPERTY
Coulomb
SciTegic.value.DoubleValue
-7.801

@<SCITEGIC>MOL_PROPERTY
VdW
SciTegic.value.DoubleValue
2.317

@<SCITEGIC>MOL_PROPERTY
VdW6
SciTegic.value.DoubleValue
-9.658

@<SCITEGIC>MOL_PROPERTY
VdW12
SciTegic.value.DoubleValue
11.975

@<SCITEGIC>MOL_PROPERTY
Bond
SciTegic.value.DoubleValue
0.267

@<SCITEGIC>MOL_PROPERTY
Angle
SciTegic.value.DoubleValue
3.051

@<SCITEGIC>MOL_PROPERTY
Pdih
SciTegic.value.DoubleValue
8.764

@<SCITEGIC>MOL_PROPERTY
Idih
SciTegic.value.DoubleValue
0.000

@<SCITEGIC>MOL_PROPERTY
Tether
SciTegic.value.DoubleValue
0.000

@<TRIPOS>MOLECULE
guest-5_confgen4.mol2 : confsearch ligand conformer 414
          22          22           1
SMALL
USER_CHARGES
 
@<TRIPOS>ATOM
       1    C1      20.103891   19.346616   21.059971 C.3        1 MOL1        -0.1685
       2    H1      20.197872   18.979431   20.029005 H          1 MOL1         0.0832
       3    H2      19.443862   20.223862   21.015510 H          1 MOL1         0.0832
       4    C2      21.513176   19.747388   21.550567 C.3        1 MOL1        -0.1685
       5    H3      22.137865   18.849077   21.647428 H          1 MOL1         0.0832
       6    H4      21.991193   20.364676   20.777900 H          1 MOL1         0.0832
       7    C3      21.533129   20.534586   22.879154 C.3        1 MOL1        -0.1685
       8    H5      21.091065   21.527487   22.722260 H          1 MOL1         0.0832
       9    H6      22.582018   20.718894   23.147461 H          1 MOL1         0.0832
      10    C4      20.840038   19.827698   24.075448 C.3        1 MOL1        -0.1761
      11    H7      21.226557   18.806483   24.184905 H          1 MOL1         0.0832
      12    H8      21.136410   20.356310   24.990498 H          1 MOL1         0.0832
      13    C5      19.290055   19.803096   24.044116 C.3        1 MOL1         0.1218
      14    H9      18.957618   19.573867   25.066964 H          1 MOL1         0.0789
      15    C6      18.648596   18.726197   23.130902 C.3        1 MOL1        -0.1761
      16    H10     18.413911   17.851803   23.751724 H          1 MOL1         0.0832
      17    H11     17.678123   19.093420   22.772012 H          1 MOL1         0.0832
      18    C7      19.469738   18.227970   21.915833 C.3        1 MOL1        -0.1685
      19    H12     20.248719   17.530731   22.252671 H          1 MOL1         0.0832
      20    H13     18.799819   17.635093   21.278349 H          1 MOL1         0.0832
      21    O1      18.778054   21.088434   23.702531 O.3        1 MOL1        -0.5509
      22    H14     17.802178   21.022511   23.737598 H          1 MOL1         0.3779
@<TRIPOS>BOND
    1     1     2    1
    2     1     3    1
    3     1     4    1
    4     4     5    1
    5     4     6    1
    6     4     7    1
    7     7     8    1
    8     7     9    1
    9     7    10    1
   10    10    11    1
   11    10    12    1
   12    10    13    1
   13    13    14    1
   14    13    15    1
   15    15    16    1
   16    15    17    1
   17     1    18    1
   18    15    18    1
   19    18    19    1
   20    18    20    1
   21    13    21    1
   22    21    22    1
@<TRIPOS>SUBSTRUCTURE
       1 MOL1            1 RESIDUE      1      MOL     
@<SCITEGIC>MOL_PROPERTY
VConf Rank
SciTegic.value.IntegerValue
414

@<SCITEGIC>MOL_PROPERTY
Conf_Id
SciTegic.value.IntegerValue
104

@<SCITEGIC>MOL_PROPERTY
Delta U+W
SciTegic.value.DoubleValue
-1.172

@<SCITEGIC>MOL_PROPERTY
U+W
SciTegic.value.DoubleValue
5.252

@<SCITEGIC>MOL_PROPERTY
Grad RMS
SciTegic.value.DoubleValue
0.000000

@<SCITEGIC>MOL_PROPERTY
U
SciTegic.value.DoubleValue
7.482

@<SCITEGIC>MOL_PROPERTY
W
SciTegic.value.DoubleValue
-2.230

@<SCITEGIC>MOL_PROPERTY
W(PB)
SciTegic.value.DoubleValue
-4.220

@<SCITEGIC>MOL_PROPERTY
W(SA)
SciTegic.value.DoubleValue
1.990

@<SCITEGIC>MOL_PROPERTY
Valence
SciTegic.value.DoubleValue
12.309

@<SCITEGIC>MOL_PROPERTY
Coulomb
SciTegic.value.DoubleValue
-7.084

@<SCITEGIC>MOL_PROPERTY
VdW
SciTegic.value.DoubleValue
2.258

@<SCITEGIC>MOL_PROPERTY
VdW6
SciTegic.value.DoubleValue
-9.770

@<SCITEGIC>MOL_PROPERTY
VdW12
SciTegic.value.DoubleValue
12.028

@<SCITEGIC>MOL_PROPERTY
Bond
SciTegic.value.DoubleValue
0.284

@<SCITEGIC>MOL_PROPERTY
Angle
SciTegic.value.DoubleValue
3.491

@<SCITEGIC>MOL_PROPERTY
Pdih
SciTegic.value.DoubleValue
8.535

@<SCITEGIC>MOL_PROPERTY
Idih
SciTegic.value.DoubleValue
0.000

@<SCITEGIC>MOL_PROPERTY
Tether
SciTegic.value.DoubleValue
0.000

@<TRIPOS>MOLECULE
guest-5_confgen4.mol2 : confsearch ligand conformer 415
          22          22           1
SMALL
USER_CHARGES
 
@<TRIPOS>ATOM
       1    C1      21.254993   20.415813   21.893667 C.3        1 MOL1        -0.1685
       2    H1      20.808242   21.393937   22.117656 H          1 MOL1         0.0832
       3    H2      22.155034   20.623781   21.299011 H          1 MOL1         0.0832
       4    C2      20.303385   19.559508   21.027256 C.3        1 MOL1        -0.1685
       5    H3      20.382003   19.895279   19.984027 H          1 MOL1         0.0832
       6    H4      20.656351   18.519956   21.018226 H          1 MOL1         0.0832
       7    C3      18.806712   19.606564   21.426544 C.3        1 MOL1        -0.1685
       8    H5      18.326161   18.679592   21.084333 H          1 MOL1         0.0832
       9    H6      18.321100   20.412588   20.859592 H          1 MOL1         0.0832
      10    C4      18.477400   19.826864   22.927951 C.3        1 MOL1        -0.1761
      11    H7      18.587466   20.892592   23.166832 H          1 MOL1         0.0832
      12    H8      17.412243   19.607228   23.076951 H          1 MOL1         0.0832
      13    C5      19.286326   19.001783   23.955015 C.3        1 MOL1         0.1218
      14    H9      18.695812   18.963702   24.881689 H          1 MOL1         0.0789
      15    C6      20.640795   19.653077   24.314876 C.3        1 MOL1        -0.1761
      16    H10     20.455701   20.673767   24.674032 H          1 MOL1         0.0832
      17    H11     21.064437   19.111103   25.170467 H          1 MOL1         0.0832
      18    C7      21.704921   19.701953   23.190581 C.3        1 MOL1        -0.1685
      19    H12     22.586456   20.225822   23.584497 H          1 MOL1         0.0832
      20    H13     22.046560   18.684585   22.956651 H          1 MOL1         0.0832
      21    O1      19.489581   17.678960   23.482790 O.3        1 MOL1        -0.5509
      22    H14     19.942027   17.799066   22.624214 H          1 MOL1         0.3779
@<TRIPOS>BOND
    1     1     2    1
    2     1     3    1
    3     1     4    1
    4     4     5    1
    5     4     6    1
    6     4     7    1
    7     7     8    1
    8     7     9    1
    9     7    10    1
   10    10    11    1
   11    10    12    1
   12    10    13    1
   13    13    14    1
   14    13    15    1
   15    15    16    1
   16    15    17    1
   17     1    18    1
   18    15    18    1
   19    18    19    1
   20    18    20    1
   21    13    21    1
   22    21    22    1
@<TRIPOS>SUBSTRUCTURE
       1 MOL1            1 RESIDUE      1      MOL     
@<SCITEGIC>MOL_PROPERTY
VConf Rank
SciTegic.value.IntegerValue
415

@<SCITEGIC>MOL_PROPERTY
Conf_Id
SciTegic.value.IntegerValue
99

@<SCITEGIC>MOL_PROPERTY
Delta U+W
SciTegic.value.DoubleValue
-3.852

@<SCITEGIC>MOL_PROPERTY
U+W
SciTegic.value.DoubleValue
2.572

@<SCITEGIC>MOL_PROPERTY
Grad RMS
SciTegic.value.DoubleValue
0.000000

@<SCITEGIC>MOL_PROPERTY
U
SciTegic.value.DoubleValue
3.922

@<SCITEGIC>MOL_PROPERTY
W
SciTegic.value.DoubleValue
-1.350

@<SCITEGIC>MOL_PROPERTY
W(PB)
SciTegic.value.DoubleValue
-3.345

@<SCITEGIC>MOL_PROPERTY
W(SA)
SciTegic.value.DoubleValue
1.995

@<SCITEGIC>MOL_PROPERTY
Valence
SciTegic.value.DoubleValue
12.571

@<SCITEGIC>MOL_PROPERTY
Coulomb
SciTegic.value.DoubleValue
-10.581

@<SCITEGIC>MOL_PROPERTY
VdW
SciTegic.value.DoubleValue
1.932

@<SCITEGIC>MOL_PROPERTY
VdW6
SciTegic.value.DoubleValue
-10.483

@<SCITEGIC>MOL_PROPERTY
VdW12
SciTegic.value.DoubleValue
12.415

@<SCITEGIC>MOL_PROPERTY
Bond
SciTegic.value.DoubleValue
0.268

@<SCITEGIC>MOL_PROPERTY
Angle
SciTegic.value.DoubleValue
3.728

@<SCITEGIC>MOL_PROPERTY
Pdih
SciTegic.value.DoubleValue
8.575

@<SCITEGIC>MOL_PROPERTY
Idih
SciTegic.value.DoubleValue
0.000

@<SCITEGIC>MOL_PROPERTY
Tether
SciTegic.value.DoubleValue
0.000

@<TRIPOS>MOLECULE
guest-5_confgen4.mol2 : confsearch ligand conformer 416
          22          22           1
SMALL
USER_CHARGES
 
@<TRIPOS>ATOM
       1    C1      19.953932   21.134555   23.299309 C.3        1 MOL1        -0.1685
       2    H1      19.449611   22.106784   23.387193 H          1 MOL1         0.0832
       3    H2      20.815018   21.199991   23.977766 H          1 MOL1         0.0832
       4    C2      20.440394   20.980314   21.828454 C.3        1 MOL1        -0.1685
       5    H3      20.146773   21.885852   21.279748 H          1 MOL1         0.0832
       6    H4      21.537948   20.970620   21.791927 H          1 MOL1         0.0832
       7    C3      19.884568   19.757941   21.054107 C.3        1 MOL1        -0.1685
       8    H5      20.143643   19.873151   19.992819 H          1 MOL1         0.0832
       9    H6      18.787795   19.774805   21.073464 H          1 MOL1         0.0832
      10    C4      20.396083   18.366432   21.519815 C.3        1 MOL1        -0.1761
      11    H7      19.671556   17.608497   21.195261 H          1 MOL1         0.0832
      12    H8      21.320730   18.136349   20.973842 H          1 MOL1         0.0832
      13    C5      20.680748   18.158275   23.027726 C.3        1 MOL1         0.1218
      14    H9      20.806621   17.077113   23.182707 H          1 MOL1         0.0789
      15    C6      19.574608   18.627021   24.004902 C.3        1 MOL1        -0.1761
      16    H10     18.753083   17.899767   23.974252 H          1 MOL1         0.0832
      17    H11     19.982492   18.561127   25.022392 H          1 MOL1         0.0832
      18    C7      18.973948   20.046613   23.808002 C.3        1 MOL1        -0.1685
      19    H12     18.103792   19.991447   23.142154 H          1 MOL1         0.0832
      20    H13     18.562978   20.374256   24.772615 H          1 MOL1         0.0832
      21    O1      21.911293   18.776381   23.369698 O.3        1 MOL1        -0.5509
      22    H14     21.748258   19.728610   23.216036 H          1 MOL1         0.3779
@<TRIPOS>BOND
    1     1     2    1
    2     1     3    1
    3     1     4    1
    4     4     5    1
    5     4     6    1
    6     4     7    1
    7     7     8    1
    8     7     9    1
    9     7    10    1
   10    10    11    1
   11    10    12    1
   12    10    13    1
   13    13    14    1
   14    13    15    1
   15    15    16    1
   16    15    17    1
   17     1    18    1
   18    15    18    1
   19    18    19    1
   20    18    20    1
   21    13    21    1
   22    21    22    1
@<TRIPOS>SUBSTRUCTURE
       1 MOL1            1 RESIDUE      1      MOL     
@<SCITEGIC>MOL_PROPERTY
VConf Rank
SciTegic.value.IntegerValue
416

@<SCITEGIC>MOL_PROPERTY
Conf_Id
SciTegic.value.IntegerValue
98

@<SCITEGIC>MOL_PROPERTY
Delta U+W
SciTegic.value.DoubleValue
0.930

@<SCITEGIC>MOL_PROPERTY
U+W
SciTegic.value.DoubleValue
7.353

@<SCITEGIC>MOL_PROPERTY
Grad RMS
SciTegic.value.DoubleValue
0.000000

@<SCITEGIC>MOL_PROPERTY
U
SciTegic.value.DoubleValue
8.455

@<SCITEGIC>MOL_PROPERTY
W
SciTegic.value.DoubleValue
-1.102

@<SCITEGIC>MOL_PROPERTY
W(PB)
SciTegic.value.DoubleValue
-3.101

@<SCITEGIC>MOL_PROPERTY
W(SA)
SciTegic.value.DoubleValue
2.000

@<SCITEGIC>MOL_PROPERTY
Valence
SciTegic.value.DoubleValue
15.601

@<SCITEGIC>MOL_PROPERTY
Coulomb
SciTegic.value.DoubleValue
-10.573

@<SCITEGIC>MOL_PROPERTY
VdW
SciTegic.value.DoubleValue
3.427

@<SCITEGIC>MOL_PROPERTY
VdW6
SciTegic.value.DoubleValue
-11.360

@<SCITEGIC>MOL_PROPERTY
VdW12
SciTegic.value.DoubleValue
14.787

@<SCITEGIC>MOL_PROPERTY
Bond
SciTegic.value.DoubleValue
0.471

@<SCITEGIC>MOL_PROPERTY
Angle
SciTegic.value.DoubleValue
5.445

@<SCITEGIC>MOL_PROPERTY
Pdih
SciTegic.value.DoubleValue
9.685

@<SCITEGIC>MOL_PROPERTY
Idih
SciTegic.value.DoubleValue
0.000

@<SCITEGIC>MOL_PROPERTY
Tether
SciTegic.value.DoubleValue
0.000

@<TRIPOS>MOLECULE
guest-5_confgen4.mol2 : confsearch ligand conformer 417
          22          22           1
SMALL
USER_CHARGES
 
@<TRIPOS>ATOM
       1    C1      18.868547   20.010437   21.467110 C.3        1 MOL1        -0.1685
       2    H1      19.705625   20.451294   20.910579 H          1 MOL1         0.0832
       3    H2      17.988971   20.162358   20.826816 H          1 MOL1         0.0832
       4    C2      18.654087   20.785673   22.791940 C.3        1 MOL1        -0.1685
       5    H3      18.448548   21.833199   22.532486 H          1 MOL1         0.0832
       6    H4      17.746174   20.418917   23.289743 H          1 MOL1         0.0832
       7    C3      19.835380   20.760439   23.801176 C.3        1 MOL1        -0.1685
       8    H5      19.616660   20.061851   24.619193 H          1 MOL1         0.0832
       9    H6      19.897243   21.746763   24.280731 H          1 MOL1         0.0832
      10    C4      21.218327   20.419417   23.185651 C.3        1 MOL1        -0.1761
      11    H7      21.403299   21.078881   22.328610 H          1 MOL1         0.0832
      12    H8      21.995270   20.682349   23.916141 H          1 MOL1         0.0832
      13    C5      21.420580   18.939868   22.745310 C.3        1 MOL1         0.1218
      14    H9      21.876480   18.943478   21.744706 H          1 MOL1         0.0789
      15    C6      20.140438   18.069000   22.689775 C.3        1 MOL1        -0.1761
      16    H10     20.426782   17.028536   22.488532 H          1 MOL1         0.0832
      17    H11     19.665227   18.047912   23.677863 H          1 MOL1         0.0832
      18    C7      19.097359   18.488716   21.624114 C.3        1 MOL1        -0.1685
      19    H12     19.404292   18.087019   20.648796 H          1 MOL1         0.0832
      20    H13     18.141255   18.003238   21.862541 H          1 MOL1         0.0832
      21    O1      22.320259   18.317744   23.655648 O.3        1 MOL1        -0.5509
      22    H14     22.474450   17.408716   23.323875 H          1 MOL1         0.3779
@<TRIPOS>BOND
    1     1     2    1
    2     1     3    1
    3     1     4    1
    4     4     5    1
    5     4     6    1
    6     4     7    1
    7     7     8    1
    8     7     9    1
    9     7    10    1
   10    10    11    1
   11    10    12    1
   12    10    13    1
   13    13    14    1
   14    13    15    1
   15    15    16    1
   16    15    17    1
   17     1    18    1
   18    15    18    1
   19    18    19    1
   20    18    20    1
   21    13    21    1
   22    21    22    1
@<TRIPOS>SUBSTRUCTURE
       1 MOL1            1 RESIDUE      1      MOL     
@<SCITEGIC>MOL_PROPERTY
VConf Rank
SciTegic.value.IntegerValue
417

@<SCITEGIC>MOL_PROPERTY
Conf_Id
SciTegic.value.IntegerValue
141

@<SCITEGIC>MOL_PROPERTY
Delta U+W
SciTegic.value.DoubleValue
0.000

@<SCITEGIC>MOL_PROPERTY
U+W
SciTegic.value.DoubleValue
6.423

@<SCITEGIC>MOL_PROPERTY
Grad RMS
SciTegic.value.DoubleValue
0.000000

@<SCITEGIC>MOL_PROPERTY
U
SciTegic.value.DoubleValue
8.781

@<SCITEGIC>MOL_PROPERTY
W
SciTegic.value.DoubleValue
-2.358

@<SCITEGIC>MOL_PROPERTY
W(PB)
SciTegic.value.DoubleValue
-4.373

@<SCITEGIC>MOL_PROPERTY
W(SA)
SciTegic.value.DoubleValue
2.015

@<SCITEGIC>MOL_PROPERTY
Valence
SciTegic.value.DoubleValue
13.328

@<SCITEGIC>MOL_PROPERTY
Coulomb
SciTegic.value.DoubleValue
-8.387

@<SCITEGIC>MOL_PROPERTY
VdW
SciTegic.value.DoubleValue
3.840

@<SCITEGIC>MOL_PROPERTY
VdW6
SciTegic.value.DoubleValue
-9.744

@<SCITEGIC>MOL_PROPERTY
VdW12
SciTegic.value.DoubleValue
13.584

@<SCITEGIC>MOL_PROPERTY
Bond
SciTegic.value.DoubleValue
0.436

@<SCITEGIC>MOL_PROPERTY
Angle
SciTegic.value.DoubleValue
3.478

@<SCITEGIC>MOL_PROPERTY
Pdih
SciTegic.value.DoubleValue
9.415

@<SCITEGIC>MOL_PROPERTY
Idih
SciTegic.value.DoubleValue
0.000

@<SCITEGIC>MOL_PROPERTY
Tether
SciTegic.value.DoubleValue
0.000

@<TRIPOS>MOLECULE
guest-5_confgen4.mol2 : confsearch ligand conformer 418
          22          22           1
SMALL
USER_CHARGES
 
@<TRIPOS>ATOM
       1    C1      19.064053   18.125171   22.587192 C.3        1 MOL1        -0.1685
       2    H1      18.810948   18.258500   23.647744 H          1 MOL1         0.0832
       3    H2      18.529356   17.223553   22.258424 H          1 MOL1         0.0832
       4    C2      20.579134   17.864084   22.408259 C.3        1 MOL1        -0.1685
       5    H3      20.816196   16.877241   22.828733 H          1 MOL1         0.0832
       6    H4      20.812877   17.795938   21.336999 H          1 MOL1         0.0832
       7    C3      21.510357   18.906196   23.069438 C.3        1 MOL1        -0.1685
       8    H5      22.547573   18.648762   22.815005 H          1 MOL1         0.0832
       9    H6      21.439204   18.817784   24.162178 H          1 MOL1         0.0832
      10    C4      21.249145   20.374313   22.652807 C.3        1 MOL1        -0.1761
      11    H7      22.102039   20.973852   22.997202 H          1 MOL1         0.0832
      12    H8      21.230842   20.469137   21.559339 H          1 MOL1         0.0832
      13    C5      19.952392   20.947148   23.267557 C.3        1 MOL1         0.1218
      14    H9      19.806420   20.485637   24.254747 H          1 MOL1         0.0789
      15    C6      18.679862   20.702442   22.424892 C.3        1 MOL1        -0.1761
      16    H10     17.813566   20.851104   23.082372 H          1 MOL1         0.0832
      17    H11     18.604115   21.475274   21.648295 H          1 MOL1         0.0832
      18    C7      18.554908   19.316947   21.743104 C.3        1 MOL1        -0.1685
      19    H12     17.496691   19.153802   21.497369 H          1 MOL1         0.0832
      20    H13     19.081382   19.332996   20.779114 H          1 MOL1         0.0832
      21    O1      20.106248   22.351134   23.435988 O.3        1 MOL1        -0.5509
      22    H14     20.871748   22.481495   24.034014 H          1 MOL1         0.3779
@<TRIPOS>BOND
    1     1     2    1
    2     1     3    1
    3     1     4    1
    4     4     5    1
    5     4     6    1
    6     4     7    1
    7     7     8    1
    8     7     9    1
    9     7    10    1
   10    10    11    1
   11    10    12    1
   12    10    13    1
   13    13    14    1
   14    13    15    1
   15    15    16    1
   16    15    17    1
   17     1    18    1
   18    15    18    1
   19    18    19    1
   20    18    20    1
   21    13    21    1
   22    21    22    1
@<TRIPOS>SUBSTRUCTURE
       1 MOL1            1 RESIDUE      1      MOL     
@<SCITEGIC>MOL_PROPERTY
VConf Rank
SciTegic.value.IntegerValue
418

@<SCITEGIC>MOL_PROPERTY
Conf_Id
SciTegic.value.IntegerValue
144

@<SCITEGIC>MOL_PROPERTY
Delta U+W
SciTegic.value.DoubleValue
-3.291

@<SCITEGIC>MOL_PROPERTY
U+W
SciTegic.value.DoubleValue
3.132

@<SCITEGIC>MOL_PROPERTY
Grad RMS
SciTegic.value.DoubleValue
0.000000

@<SCITEGIC>MOL_PROPERTY
U
SciTegic.value.DoubleValue
5.411

@<SCITEGIC>MOL_PROPERTY
W
SciTegic.value.DoubleValue
-2.279

@<SCITEGIC>MOL_PROPERTY
W(PB)
SciTegic.value.DoubleValue
-4.300

@<SCITEGIC>MOL_PROPERTY
W(SA)
SciTegic.value.DoubleValue
2.021

@<SCITEGIC>MOL_PROPERTY
Valence
SciTegic.value.DoubleValue
11.909

@<SCITEGIC>MOL_PROPERTY
Coulomb
SciTegic.value.DoubleValue
-8.733

@<SCITEGIC>MOL_PROPERTY
VdW
SciTegic.value.DoubleValue
2.236

@<SCITEGIC>MOL_PROPERTY
VdW6
SciTegic.value.DoubleValue
-8.936

@<SCITEGIC>MOL_PROPERTY
VdW12
SciTegic.value.DoubleValue
11.172

@<SCITEGIC>MOL_PROPERTY
Bond
SciTegic.value.DoubleValue
0.223

@<SCITEGIC>MOL_PROPERTY
Angle
SciTegic.value.DoubleValue
2.457

@<SCITEGIC>MOL_PROPERTY
Pdih
SciTegic.value.DoubleValue
9.228

@<SCITEGIC>MOL_PROPERTY
Idih
SciTegic.value.DoubleValue
0.000

@<SCITEGIC>MOL_PROPERTY
Tether
SciTegic.value.DoubleValue
0.000

@<TRIPOS>MOLECULE
guest-5_confgen4.mol2 : confsearch ligand conformer 419
          22          22           1
SMALL
USER_CHARGES
 
@<TRIPOS>ATOM
       1    C1      19.466714   19.590288   24.320032 C.3        1 MOL1        -0.1685
       2    H1      19.459065   19.598115   25.418564 H          1 MOL1         0.0832
       3    H2      18.415795   19.661553   24.008305 H          1 MOL1         0.0832
       4    C2      20.089861   18.253124   23.855540 C.3        1 MOL1        -0.1685
       5    H3      21.185264   18.332546   23.879182 H          1 MOL1         0.0832
       6    H4      19.837243   17.471098   24.584661 H          1 MOL1         0.0832
       7    C3      19.634432   17.767045   22.458316 C.3        1 MOL1        -0.1685
       8    H5      18.678658   17.234824   22.559072 H          1 MOL1         0.0832
       9    H6      20.356522   17.018604   22.104141 H          1 MOL1         0.0832
      10    C4      19.466335   18.858478   21.372656 C.3        1 MOL1        -0.1761
      11    H7      19.474128   18.361728   20.393040 H          1 MOL1         0.0832
      12    H8      18.471313   19.311960   21.468473 H          1 MOL1         0.0832
      13    C5      20.538881   19.970559   21.395339 C.3        1 MOL1         0.1218
      14    H9      21.504080   19.545005   21.704798 H          1 MOL1         0.0789
      15    C6      20.161833   21.138335   22.335078 C.3        1 MOL1        -0.1761
      16    H10     20.818985   21.990972   22.117608 H          1 MOL1         0.0832
      17    H11     19.142071   21.475978   22.108873 H          1 MOL1         0.0832
      18    C7      20.269081   20.826029   23.846593 C.3        1 MOL1        -0.1685
      19    H12     21.326150   20.700628   24.118261 H          1 MOL1         0.0832
      20    H13     19.919237   21.705449   24.404283 H          1 MOL1         0.0832
      21    O1      20.668254   20.493399   20.080002 O.3        1 MOL1        -0.5509
      22    H14     19.792170   20.859908   19.840610 H          1 MOL1         0.3779
@<TRIPOS>BOND
    1     1     2    1
    2     1     3    1
    3     1     4    1
    4     4     5    1
    5     4     6    1
    6     4     7    1
    7     7     8    1
    8     7     9    1
    9     7    10    1
   10    10    11    1
   11    10    12    1
   12    10    13    1
   13    13    14    1
   14    13    15    1
   15    15    16    1
   16    15    17    1
   17     1    18    1
   18    15    18    1
   19    18    19    1
   20    18    20    1
   21    13    21    1
   22    21    22    1
@<TRIPOS>SUBSTRUCTURE
       1 MOL1            1 RESIDUE      1      MOL     
@<SCITEGIC>MOL_PROPERTY
VConf Rank
SciTegic.value.IntegerValue
419

@<SCITEGIC>MOL_PROPERTY
Conf_Id
SciTegic.value.IntegerValue
76

@<SCITEGIC>MOL_PROPERTY
Delta U+W
SciTegic.value.DoubleValue
-3.175

@<SCITEGIC>MOL_PROPERTY
U+W
SciTegic.value.DoubleValue
3.248

@<SCITEGIC>MOL_PROPERTY
Grad RMS
SciTegic.value.DoubleValue
0.000000

@<SCITEGIC>MOL_PROPERTY
U
SciTegic.value.DoubleValue
5.336

@<SCITEGIC>MOL_PROPERTY
W
SciTegic.value.DoubleValue
-2.088

@<SCITEGIC>MOL_PROPERTY
W(PB)
SciTegic.value.DoubleValue
-4.098

@<SCITEGIC>MOL_PROPERTY
W(SA)
SciTegic.value.DoubleValue
2.010

@<SCITEGIC>MOL_PROPERTY
Valence
SciTegic.value.DoubleValue
12.390

@<SCITEGIC>MOL_PROPERTY
Coulomb
SciTegic.value.DoubleValue
-9.270

@<SCITEGIC>MOL_PROPERTY
VdW
SciTegic.value.DoubleValue
2.216

@<SCITEGIC>MOL_PROPERTY
VdW6
SciTegic.value.DoubleValue
-8.967

@<SCITEGIC>MOL_PROPERTY
VdW12
SciTegic.value.DoubleValue
11.183

@<SCITEGIC>MOL_PROPERTY
Bond
SciTegic.value.DoubleValue
0.218

@<SCITEGIC>MOL_PROPERTY
Angle
SciTegic.value.DoubleValue
2.426

@<SCITEGIC>MOL_PROPERTY
Pdih
SciTegic.value.DoubleValue
9.745

@<SCITEGIC>MOL_PROPERTY
Idih
SciTegic.value.DoubleValue
0.000

@<SCITEGIC>MOL_PROPERTY
Tether
SciTegic.value.DoubleValue
0.000

@<TRIPOS>MOLECULE
guest-5_confgen4.mol2 : confsearch ligand conformer 420
          22          22           1
SMALL
USER_CHARGES
 
@<TRIPOS>ATOM
       1    C1      18.881556   18.323439   21.923126 C.3        1 MOL1        -0.1685
       2    H1      17.801845   18.238581   22.106991 H          1 MOL1         0.0832
       3    H2      19.108632   17.590237   21.137209 H          1 MOL1         0.0832
       4    C2      19.626272   17.917871   23.217571 C.3        1 MOL1        -0.1685
       5    H3      19.059272   18.266581   24.091294 H          1 MOL1         0.0832
       6    H4      19.620980   16.821283   23.282757 H          1 MOL1         0.0832
       7    C3      21.085575   18.419859   23.317501 C.3        1 MOL1        -0.1685
       8    H5      21.580456   18.388974   22.337209 H          1 MOL1         0.0832
       9    H6      21.641737   17.725469   23.961549 H          1 MOL1         0.0832
      10    C4      21.192325   19.833216   23.944484 C.3        1 MOL1        -0.1761
      11    H7      20.629120   19.853591   24.886237 H          1 MOL1         0.0832
      12    H8      22.238724   20.014734   24.222897 H          1 MOL1         0.0832
      13    C5      20.724033   21.010398   23.059023 C.3        1 MOL1         0.1218
      14    H9      20.692366   21.899805   23.704817 H          1 MOL1         0.0789
      15    C6      19.313996   20.847743   22.437873 C.3        1 MOL1        -0.1761
      16    H10     18.573646   20.687942   23.232368 H          1 MOL1         0.0832
      17    H11     19.045440   21.804293   21.971314 H          1 MOL1         0.0832
      18    C7      19.190499   19.733592   21.366129 C.3        1 MOL1        -0.1685
      19    H12     18.387488   20.003122   20.666879 H          1 MOL1         0.0832
      20    H13     20.103746   19.692855   20.758049 H          1 MOL1         0.0832
      21    O1      21.686666   21.239931   22.034974 O.3        1 MOL1        -0.5509
      22    H14     21.327846   21.954290   21.469975 H          1 MOL1         0.3779
@<TRIPOS>BOND
    1     1     2    1
    2     1     3    1
    3     1     4    1
    4     4     5    1
    5     4     6    1
    6     4     7    1
    7     7     8    1
    8     7     9    1
    9     7    10    1
   10    10    11    1
   11    10    12    1
   12    10    13    1
   13    13    14    1
   14    13    15    1
   15    15    16    1
   16    15    17    1
   17     1    18    1
   18    15    18    1
   19    18    19    1
   20    18    20    1
   21    13    21    1
   22    21    22    1
@<TRIPOS>SUBSTRUCTURE
       1 MOL1            1 RESIDUE      1      MOL     
@<SCITEGIC>MOL_PROPERTY
VConf Rank
SciTegic.value.IntegerValue
420

@<SCITEGIC>MOL_PROPERTY
Conf_Id
SciTegic.value.IntegerValue
95

@<SCITEGIC>MOL_PROPERTY
Delta U+W
SciTegic.value.DoubleValue
-2.289

@<SCITEGIC>MOL_PROPERTY
U+W
SciTegic.value.DoubleValue
4.134

@<SCITEGIC>MOL_PROPERTY
Grad RMS
SciTegic.value.DoubleValue
0.000000

@<SCITEGIC>MOL_PROPERTY
U
SciTegic.value.DoubleValue
6.373

@<SCITEGIC>MOL_PROPERTY
W
SciTegic.value.DoubleValue
-2.240

@<SCITEGIC>MOL_PROPERTY
W(PB)
SciTegic.value.DoubleValue
-4.254

@<SCITEGIC>MOL_PROPERTY
W(SA)
SciTegic.value.DoubleValue
2.015

@<SCITEGIC>MOL_PROPERTY
Valence
SciTegic.value.DoubleValue
12.093

@<SCITEGIC>MOL_PROPERTY
Coulomb
SciTegic.value.DoubleValue
-8.058

@<SCITEGIC>MOL_PROPERTY
VdW
SciTegic.value.DoubleValue
2.339

@<SCITEGIC>MOL_PROPERTY
VdW6
SciTegic.value.DoubleValue
-9.683

@<SCITEGIC>MOL_PROPERTY
VdW12
SciTegic.value.DoubleValue
12.022

@<SCITEGIC>MOL_PROPERTY
Bond
SciTegic.value.DoubleValue
0.268

@<SCITEGIC>MOL_PROPERTY
Angle
SciTegic.value.DoubleValue
3.005

@<SCITEGIC>MOL_PROPERTY
Pdih
SciTegic.value.DoubleValue
8.820

@<SCITEGIC>MOL_PROPERTY
Idih
SciTegic.value.DoubleValue
0.000

@<SCITEGIC>MOL_PROPERTY
Tether
SciTegic.value.DoubleValue
0.000

@<TRIPOS>MOLECULE
guest-5_confgen4.mol2 : confsearch ligand conformer 421
          22          22           1
SMALL
USER_CHARGES
 
@<TRIPOS>ATOM
       1    C1      21.926497   19.628981   22.371285 C.3        1 MOL1        -0.1685
       2    H1      22.460971   20.072843   21.520357 H          1 MOL1         0.0832
       3    H2      22.703384   19.210504   23.025589 H          1 MOL1         0.0832
       4    C2      21.044066   18.474452   21.839585 C.3        1 MOL1        -0.1685
       5    H3      20.646631   18.742909   20.851427 H          1 MOL1         0.0832
       6    H4      21.691530   17.603623   21.668572 H          1 MOL1         0.0832
       7    C3      19.878863   18.059237   22.767710 C.3        1 MOL1        -0.1685
       8    H5      20.179970   18.108710   23.823033 H          1 MOL1         0.0832
       9    H6      19.642924   17.005447   22.567001 H          1 MOL1         0.0832
      10    C4      18.592645   18.886869   22.518758 C.3        1 MOL1        -0.1761
      11    H7      18.368586   18.887478   21.444191 H          1 MOL1         0.0832
      12    H8      17.746720   18.371704   22.992042 H          1 MOL1         0.0832
      13    C5      18.614738   20.349017   23.020126 C.3        1 MOL1         0.1218
      14    H9      17.716059   20.836980   22.615936 H          1 MOL1         0.0789
      15    C6      19.833407   21.185336   22.555635 C.3        1 MOL1        -0.1761
      16    H10     19.885483   21.194601   21.459418 H          1 MOL1         0.0832
      17    H11     19.646810   22.224546   22.855721 H          1 MOL1         0.0832
      18    C7      21.197753   20.749596   23.150725 C.3        1 MOL1        -0.1685
      19    H12     21.862332   21.623289   23.185556 H          1 MOL1         0.0832
      20    H13     21.067674   20.442719   24.196921 H          1 MOL1         0.0832
      21    O1      18.525311   20.362211   24.441647 O.3        1 MOL1        -0.5509
      22    H14     17.753982   19.808765   24.680256 H          1 MOL1         0.3779
@<TRIPOS>BOND
    1     1     2    1
    2     1     3    1
    3     1     4    1
    4     4     5    1
    5     4     6    1
    6     4     7    1
    7     7     8    1
    8     7     9    1
    9     7    10    1
   10    10    11    1
   11    10    12    1
   12    10    13    1
   13    13    14    1
   14    13    15    1
   15    15    16    1
   16    15    17    1
   17     1    18    1
   18    15    18    1
   19    18    19    1
   20    18    20    1
   21    13    21    1
   22    21    22    1
@<TRIPOS>SUBSTRUCTURE
       1 MOL1            1 RESIDUE      1      MOL     
@<SCITEGIC>MOL_PROPERTY
VConf Rank
SciTegic.value.IntegerValue
421

@<SCITEGIC>MOL_PROPERTY
Conf_Id
SciTegic.value.IntegerValue
41

@<SCITEGIC>MOL_PROPERTY
Delta U+W
SciTegic.value.DoubleValue
-2.114

@<SCITEGIC>MOL_PROPERTY
U+W
SciTegic.value.DoubleValue
4.310

@<SCITEGIC>MOL_PROPERTY
Grad RMS
SciTegic.value.DoubleValue
0.000000

@<SCITEGIC>MOL_PROPERTY
U
SciTegic.value.DoubleValue
6.598

@<SCITEGIC>MOL_PROPERTY
W
SciTegic.value.DoubleValue
-2.289

@<SCITEGIC>MOL_PROPERTY
W(PB)
SciTegic.value.DoubleValue
-4.294

@<SCITEGIC>MOL_PROPERTY
W(SA)
SciTegic.value.DoubleValue
2.005

@<SCITEGIC>MOL_PROPERTY
Valence
SciTegic.value.DoubleValue
12.082

@<SCITEGIC>MOL_PROPERTY
Coulomb
SciTegic.value.DoubleValue
-7.801

@<SCITEGIC>MOL_PROPERTY
VdW
SciTegic.value.DoubleValue
2.317

@<SCITEGIC>MOL_PROPERTY
VdW6
SciTegic.value.DoubleValue
-9.658

@<SCITEGIC>MOL_PROPERTY
VdW12
SciTegic.value.DoubleValue
11.975

@<SCITEGIC>MOL_PROPERTY
Bond
SciTegic.value.DoubleValue
0.267

@<SCITEGIC>MOL_PROPERTY
Angle
SciTegic.value.DoubleValue
3.051

@<SCITEGIC>MOL_PROPERTY
Pdih
SciTegic.value.DoubleValue
8.764

@<SCITEGIC>MOL_PROPERTY
Idih
SciTegic.value.DoubleValue
0.000

@<SCITEGIC>MOL_PROPERTY
Tether
SciTegic.value.DoubleValue
0.000

@<TRIPOS>MOLECULE
guest-5_confgen4.mol2 : confsearch ligand conformer 422
          22          22           1
SMALL
USER_CHARGES
 
@<TRIPOS>ATOM
       1    C1      18.503093   19.811154   22.270779 C.3        1 MOL1        -0.1685
       2    H1      17.423888   19.751100   22.075176 H          1 MOL1         0.0832
       3    H2      18.761937   20.878620   22.244464 H          1 MOL1         0.0832
       4    C2      19.232134   19.044158   21.144900 C.3        1 MOL1        -0.1685
       5    H3      19.009435   17.971659   21.226952 H          1 MOL1         0.0832
       6    H4      18.819758   19.364234   20.178434 H          1 MOL1         0.0832
       7    C3      20.762171   19.251539   21.110255 C.3        1 MOL1        -0.1685
       8    H5      20.984123   20.286336   20.817298 H          1 MOL1         0.0832
       9    H6      21.170447   18.624468   20.306378 H          1 MOL1         0.0832
      10    C4      21.505497   18.901575   22.427896 C.3        1 MOL1        -0.1761
      11    H7      21.224160   17.895276   22.763261 H          1 MOL1         0.0832
      12    H8      22.577876   18.848979   22.200256 H          1 MOL1         0.0832
      13    C5      21.334954   19.911097   23.592290 C.3        1 MOL1         0.1218
      14    H9      22.144728   19.706943   24.307738 H          1 MOL1         0.0789
      15    C6      20.012627   19.801195   24.395106 C.3        1 MOL1        -0.1761
      16    H10     20.203320   19.177393   25.278038 H          1 MOL1         0.0832
      17    H11     19.752116   20.790953   24.792579 H          1 MOL1         0.0832
      18    C7      18.774691   19.216953   23.670485 C.3        1 MOL1        -0.1685
      19    H12     18.865061   18.124612   23.599501 H          1 MOL1         0.0832
      20    H13     17.897084   19.398961   24.305589 H          1 MOL1         0.0832
      21    O1      21.501364   21.246267   23.122664 O.3        1 MOL1        -0.5509
      22    H14     21.423424   21.832160   23.902770 H          1 MOL1         0.3779
@<TRIPOS>BOND
    1     1     2    1
    2     1     3    1
    3     1     4    1
    4     4     5    1
    5     4     6    1
    6     4     7    1
    7     7     8    1
    8     7     9    1
    9     7    10    1
   10    10    11    1
   11    10    12    1
   12    10    13    1
   13    13    14    1
   14    13    15    1
   15    15    16    1
   16    15    17    1
   17     1    18    1
   18    15    18    1
   19    18    19    1
   20    18    20    1
   21    13    21    1
   22    21    22    1
@<TRIPOS>SUBSTRUCTURE
       1 MOL1            1 RESIDUE      1      MOL     
@<SCITEGIC>MOL_PROPERTY
VConf Rank
SciTegic.value.IntegerValue
422

@<SCITEGIC>MOL_PROPERTY
Conf_Id
SciTegic.value.IntegerValue
104

@<SCITEGIC>MOL_PROPERTY
Delta U+W
SciTegic.value.DoubleValue
-1.172

@<SCITEGIC>MOL_PROPERTY
U+W
SciTegic.value.DoubleValue
5.252

@<SCITEGIC>MOL_PROPERTY
Grad RMS
SciTegic.value.DoubleValue
0.000000

@<SCITEGIC>MOL_PROPERTY
U
SciTegic.value.DoubleValue
7.482

@<SCITEGIC>MOL_PROPERTY
W
SciTegic.value.DoubleValue
-2.230

@<SCITEGIC>MOL_PROPERTY
W(PB)
SciTegic.value.DoubleValue
-4.220

@<SCITEGIC>MOL_PROPERTY
W(SA)
SciTegic.value.DoubleValue
1.990

@<SCITEGIC>MOL_PROPERTY
Valence
SciTegic.value.DoubleValue
12.309

@<SCITEGIC>MOL_PROPERTY
Coulomb
SciTegic.value.DoubleValue
-7.084

@<SCITEGIC>MOL_PROPERTY
VdW
SciTegic.value.DoubleValue
2.258

@<SCITEGIC>MOL_PROPERTY
VdW6
SciTegic.value.DoubleValue
-9.770

@<SCITEGIC>MOL_PROPERTY
VdW12
SciTegic.value.DoubleValue
12.028

@<SCITEGIC>MOL_PROPERTY
Bond
SciTegic.value.DoubleValue
0.284

@<SCITEGIC>MOL_PROPERTY
Angle
SciTegic.value.DoubleValue
3.491

@<SCITEGIC>MOL_PROPERTY
Pdih
SciTegic.value.DoubleValue
8.535

@<SCITEGIC>MOL_PROPERTY
Idih
SciTegic.value.DoubleValue
0.000

@<SCITEGIC>MOL_PROPERTY
Tether
SciTegic.value.DoubleValue
0.000

@<TRIPOS>MOLECULE
guest-5_confgen4.mol2 : confsearch ligand conformer 423
          22          22           1
SMALL
USER_CHARGES
 
@<TRIPOS>ATOM
       1    C1      21.196298   18.394610   22.679152 C.3        1 MOL1        -0.1685
       2    H1      21.261343   18.359588   21.583239 H          1 MOL1         0.0832
       3    H2      21.884138   17.621227   23.047519 H          1 MOL1         0.0832
       4    C2      19.773235   18.029414   23.159786 C.3        1 MOL1        -0.1685
       5    H3      19.664440   16.936373   23.133847 H          1 MOL1         0.0832
       6    H4      19.666243   18.300276   24.218334 H          1 MOL1         0.0832
       7    C3      18.609657   18.639029   22.337515 C.3        1 MOL1        -0.1685
       8    H5      17.723777   18.704562   22.984228 H          1 MOL1         0.0832
       9    H6      18.337914   17.931154   21.542532 H          1 MOL1         0.0832
      10    C4      18.856567   20.019283   21.670329 C.3        1 MOL1        -0.1761
      11    H7      19.444623   19.875178   20.754698 H          1 MOL1         0.0832
      12    H8      17.888218   20.409993   21.331731 H          1 MOL1         0.0832
      13    C5      19.538454   21.106488   22.532301 C.3        1 MOL1         0.1218
      14    H9      19.285441   22.080781   22.090014 H          1 MOL1         0.0789
      15    C6      21.080108   20.999193   22.524540 C.3        1 MOL1        -0.1761
      16    H10     21.429552   21.031652   21.484397 H          1 MOL1         0.0832
      17    H11     21.488150   21.899877   23.001525 H          1 MOL1         0.0832
      18    C7      21.690314   19.757334   23.220403 C.3        1 MOL1        -0.1685
      19    H12     22.780655   19.803416   23.094929 H          1 MOL1         0.0832
      20    H13     21.515440   19.813723   24.303324 H          1 MOL1         0.0832
      21    O1      19.051731   21.064345   23.864777 O.3        1 MOL1        -0.5509
      22    H14     19.237410   20.150025   24.157740 H          1 MOL1         0.3779
@<TRIPOS>BOND
    1     1     2    1
    2     1     3    1
    3     1     4    1
    4     4     5    1
    5     4     6    1
    6     4     7    1
    7     7     8    1
    8     7     9    1
    9     7    10    1
   10    10    11    1
   11    10    12    1
   12    10    13    1
   13    13    14    1
   14    13    15    1
   15    15    16    1
   16    15    17    1
   17     1    18    1
   18    15    18    1
   19    18    19    1
   20    18    20    1
   21    13    21    1
   22    21    22    1
@<TRIPOS>SUBSTRUCTURE
       1 MOL1            1 RESIDUE      1      MOL     
@<SCITEGIC>MOL_PROPERTY
VConf Rank
SciTegic.value.IntegerValue
423

@<SCITEGIC>MOL_PROPERTY
Conf_Id
SciTegic.value.IntegerValue
99

@<SCITEGIC>MOL_PROPERTY
Delta U+W
SciTegic.value.DoubleValue
-3.852

@<SCITEGIC>MOL_PROPERTY
U+W
SciTegic.value.DoubleValue
2.572

@<SCITEGIC>MOL_PROPERTY
Grad RMS
SciTegic.value.DoubleValue
0.000000

@<SCITEGIC>MOL_PROPERTY
U
SciTegic.value.DoubleValue
3.922

@<SCITEGIC>MOL_PROPERTY
W
SciTegic.value.DoubleValue
-1.350

@<SCITEGIC>MOL_PROPERTY
W(PB)
SciTegic.value.DoubleValue
-3.345

@<SCITEGIC>MOL_PROPERTY
W(SA)
SciTegic.value.DoubleValue
1.995

@<SCITEGIC>MOL_PROPERTY
Valence
SciTegic.value.DoubleValue
12.571

@<SCITEGIC>MOL_PROPERTY
Coulomb
SciTegic.value.DoubleValue
-10.581

@<SCITEGIC>MOL_PROPERTY
VdW
SciTegic.value.DoubleValue
1.932

@<SCITEGIC>MOL_PROPERTY
VdW6
SciTegic.value.DoubleValue
-10.483

@<SCITEGIC>MOL_PROPERTY
VdW12
SciTegic.value.DoubleValue
12.415

@<SCITEGIC>MOL_PROPERTY
Bond
SciTegic.value.DoubleValue
0.268

@<SCITEGIC>MOL_PROPERTY
Angle
SciTegic.value.DoubleValue
3.728

@<SCITEGIC>MOL_PROPERTY
Pdih
SciTegic.value.DoubleValue
8.575

@<SCITEGIC>MOL_PROPERTY
Idih
SciTegic.value.DoubleValue
0.000

@<SCITEGIC>MOL_PROPERTY
Tether
SciTegic.value.DoubleValue
0.000

@<TRIPOS>MOLECULE
guest-5_confgen4.mol2 : confsearch ligand conformer 424
          22          22           1
SMALL
USER_CHARGES
 
@<TRIPOS>ATOM
       1    C1      21.530404   20.050925   22.005581 C.3        1 MOL1        -0.1685
       2    H1      22.416993   20.698679   21.964756 H          1 MOL1         0.0832
       3    H2      21.678649   19.317222   21.201990 H          1 MOL1         0.0832
       4    C2      20.281884   20.931029   21.704805 C.3        1 MOL1        -0.1685
       5    H3      20.628092   21.959684   21.533634 H          1 MOL1         0.0832
       6    H4      19.823124   20.625057   20.755082 H          1 MOL1         0.0832
       7    C3      19.199439   20.975461   22.813448 C.3        1 MOL1        -0.1685
       8    H5      18.481804   21.769282   22.565311 H          1 MOL1         0.0832
       9    H6      19.651373   21.298370   23.759522 H          1 MOL1         0.0832
      10    C4      18.397970   19.662858   23.036048 C.3        1 MOL1        -0.1761
      11    H7      17.976520   19.686017   24.049254 H          1 MOL1         0.0832
      12    H8      17.531507   19.666960   22.361347 H          1 MOL1         0.0832
      13    C5      19.133743   18.314094   22.842061 C.3        1 MOL1         0.1218
      14    H9      18.482323   17.532206   23.258087 H          1 MOL1         0.0789
      15    C6      20.507237   18.175744   23.543858 C.3        1 MOL1        -0.1761
      16    H10     20.335093   18.022899   24.617053 H          1 MOL1         0.0832
      17    H11     20.967928   17.244369   23.188469 H          1 MOL1         0.0832
      18    C7      21.536906   19.327512   23.376489 C.3        1 MOL1        -0.1685
      19    H12     21.407098   20.060321   24.182533 H          1 MOL1         0.0832
      20    H13     22.538931   18.909107   23.542644 H          1 MOL1         0.0832
      21    O1      19.277961   18.045428   21.456326 O.3        1 MOL1        -0.5509
      22    H14     19.860892   18.762676   21.135890 H          1 MOL1         0.3779
@<TRIPOS>BOND
    1     1     2    1
    2     1     3    1
    3     1     4    1
    4     4     5    1
    5     4     6    1
    6     4     7    1
    7     7     8    1
    8     7     9    1
    9     7    10    1
   10    10    11    1
   11    10    12    1
   12    10    13    1
   13    13    14    1
   14    13    15    1
   15    15    16    1
   16    15    17    1
   17     1    18    1
   18    15    18    1
   19    18    19    1
   20    18    20    1
   21    13    21    1
   22    21    22    1
@<TRIPOS>SUBSTRUCTURE
       1 MOL1            1 RESIDUE      1      MOL     
@<SCITEGIC>MOL_PROPERTY
VConf Rank
SciTegic.value.IntegerValue
424

@<SCITEGIC>MOL_PROPERTY
Conf_Id
SciTegic.value.IntegerValue
98

@<SCITEGIC>MOL_PROPERTY
Delta U+W
SciTegic.value.DoubleValue
0.930

@<SCITEGIC>MOL_PROPERTY
U+W
SciTegic.value.DoubleValue
7.353

@<SCITEGIC>MOL_PROPERTY
Grad RMS
SciTegic.value.DoubleValue
0.000000

@<SCITEGIC>MOL_PROPERTY
U
SciTegic.value.DoubleValue
8.455

@<SCITEGIC>MOL_PROPERTY
W
SciTegic.value.DoubleValue
-1.102

@<SCITEGIC>MOL_PROPERTY
W(PB)
SciTegic.value.DoubleValue
-3.101

@<SCITEGIC>MOL_PROPERTY
W(SA)
SciTegic.value.DoubleValue
2.000

@<SCITEGIC>MOL_PROPERTY
Valence
SciTegic.value.DoubleValue
15.601

@<SCITEGIC>MOL_PROPERTY
Coulomb
SciTegic.value.DoubleValue
-10.573

@<SCITEGIC>MOL_PROPERTY
VdW
SciTegic.value.DoubleValue
3.427

@<SCITEGIC>MOL_PROPERTY
VdW6
SciTegic.value.DoubleValue
-11.360

@<SCITEGIC>MOL_PROPERTY
VdW12
SciTegic.value.DoubleValue
14.787

@<SCITEGIC>MOL_PROPERTY
Bond
SciTegic.value.DoubleValue
0.471

@<SCITEGIC>MOL_PROPERTY
Angle
SciTegic.value.DoubleValue
5.445

@<SCITEGIC>MOL_PROPERTY
Pdih
SciTegic.value.DoubleValue
9.685

@<SCITEGIC>MOL_PROPERTY
Idih
SciTegic.value.DoubleValue
0.000

@<SCITEGIC>MOL_PROPERTY
Tether
SciTegic.value.DoubleValue
0.000

@<TRIPOS>MOLECULE
guest-5_confgen4.mol2 : confsearch ligand conformer 425
          22          22           1
SMALL
USER_CHARGES
 
@<TRIPOS>ATOM
       1    C1      21.053229   20.621624   21.821613 C.3        1 MOL1        -0.1685
       2    H1      21.594048   20.749206   22.768196 H          1 MOL1         0.0832
       3    H2      21.610833   21.223622   21.091279 H          1 MOL1         0.0832
       4    C2      19.623233   21.204838   21.952506 C.3        1 MOL1        -0.1685
       5    H3      19.722145   22.267892   22.211365 H          1 MOL1         0.0832
       6    H4      19.125846   21.182191   20.973365 H          1 MOL1         0.0832
       7    C3      18.702049   20.533756   23.008779 C.3        1 MOL1        -0.1685
       8    H5      17.976573   19.876446   22.512148 H          1 MOL1         0.0832
       9    H6      18.095446   21.317931   23.481787 H          1 MOL1         0.0832
      10    C4      19.443003   19.741447   24.118258 C.3        1 MOL1        -0.1761
      11    H7      20.210380   20.383811   24.567842 H          1 MOL1         0.0832
      12    H8      18.732539   19.540146   24.931342 H          1 MOL1         0.0832
      13    C5      20.095357   18.399079   23.675139 C.3        1 MOL1         0.1218
      14    H9      21.112064   18.362516   24.092317 H          1 MOL1         0.0789
      15    C6      20.191661   18.165235   22.146643 C.3        1 MOL1        -0.1761
      16    H10     20.552143   17.144352   21.965236 H          1 MOL1         0.0832
      17    H11     19.188550   18.196152   21.704599 H          1 MOL1         0.0832
      18    C7      21.122599   19.139920   21.383000 C.3        1 MOL1        -0.1685
      19    H12     22.161165   18.799293   21.493304 H          1 MOL1         0.0832
      20    H13     20.895038   19.070515   20.310586 H          1 MOL1         0.0832
      21    O1      19.337090   17.326931   24.223505 O.3        1 MOL1        -0.5509
      22    H14     19.800262   16.498900   23.978528 H          1 MOL1         0.3779
@<TRIPOS>BOND
    1     1     2    1
    2     1     3    1
    3     1     4    1
    4     4     5    1
    5     4     6    1
    6     4     7    1
    7     7     8    1
    8     7     9    1
    9     7    10    1
   10    10    11    1
   11    10    12    1
   12    10    13    1
   13    13    14    1
   14    13    15    1
   15    15    16    1
   16    15    17    1
   17     1    18    1
   18    15    18    1
   19    18    19    1
   20    18    20    1
   21    13    21    1
   22    21    22    1
@<TRIPOS>SUBSTRUCTURE
       1 MOL1            1 RESIDUE      1      MOL     
@<SCITEGIC>MOL_PROPERTY
VConf Rank
SciTegic.value.IntegerValue
425

@<SCITEGIC>MOL_PROPERTY
Conf_Id
SciTegic.value.IntegerValue
141

@<SCITEGIC>MOL_PROPERTY
Delta U+W
SciTegic.value.DoubleValue
0.000

@<SCITEGIC>MOL_PROPERTY
U+W
SciTegic.value.DoubleValue
6.423

@<SCITEGIC>MOL_PROPERTY
Grad RMS
SciTegic.value.DoubleValue
0.000000

@<SCITEGIC>MOL_PROPERTY
U
SciTegic.value.DoubleValue
8.781

@<SCITEGIC>MOL_PROPERTY
W
SciTegic.value.DoubleValue
-2.358

@<SCITEGIC>MOL_PROPERTY
W(PB)
SciTegic.value.DoubleValue
-4.373

@<SCITEGIC>MOL_PROPERTY
W(SA)
SciTegic.value.DoubleValue
2.015

@<SCITEGIC>MOL_PROPERTY
Valence
SciTegic.value.DoubleValue
13.328

@<SCITEGIC>MOL_PROPERTY
Coulomb
SciTegic.value.DoubleValue
-8.387

@<SCITEGIC>MOL_PROPERTY
VdW
SciTegic.value.DoubleValue
3.840

@<SCITEGIC>MOL_PROPERTY
VdW6
SciTegic.value.DoubleValue
-9.744

@<SCITEGIC>MOL_PROPERTY
VdW12
SciTegic.value.DoubleValue
13.584

@<SCITEGIC>MOL_PROPERTY
Bond
SciTegic.value.DoubleValue
0.436

@<SCITEGIC>MOL_PROPERTY
Angle
SciTegic.value.DoubleValue
3.478

@<SCITEGIC>MOL_PROPERTY
Pdih
SciTegic.value.DoubleValue
9.415

@<SCITEGIC>MOL_PROPERTY
Idih
SciTegic.value.DoubleValue
0.000

@<SCITEGIC>MOL_PROPERTY
Tether
SciTegic.value.DoubleValue
0.000

@<TRIPOS>MOLECULE
guest-5_confgen4.mol2 : confsearch ligand conformer 426
          22          22           1
SMALL
USER_CHARGES
 
@<TRIPOS>ATOM
       1    C1      18.758828   20.822171   22.956132 C.3        1 MOL1        -0.1685
       2    H1      18.280978   20.537586   22.008884 H          1 MOL1         0.0832
       3    H2      18.111886   21.588641   23.404344 H          1 MOL1         0.0832
       4    C2      20.144437   21.464938   22.705951 C.3        1 MOL1        -0.1685
       5    H3      19.995758   22.438822   22.219845 H          1 MOL1         0.0832
       6    H4      20.624199   21.682779   23.669929 H          1 MOL1         0.0832
       7    C3      21.109463   20.631850   21.831297 C.3        1 MOL1        -0.1685
       8    H5      22.071960   21.159419   21.785501 H          1 MOL1         0.0832
       9    H6      20.734040   20.603434   20.799207 H          1 MOL1         0.0832
      10    C4      21.360898   19.187285   22.328480 C.3        1 MOL1        -0.1761
      11    H7      22.220084   18.789687   21.772422 H          1 MOL1         0.0832
      12    H8      21.655106   19.187430   23.386043 H          1 MOL1         0.0832
      13    C5      20.145687   18.259449   22.104857 C.3        1 MOL1         0.1218
      14    H9      19.630584   18.581781   21.188552 H          1 MOL1         0.0789
      15    C6      19.120263   18.254605   23.261481 C.3        1 MOL1        -0.1761
      16    H10     18.182451   17.838857   22.870953 H          1 MOL1         0.0832
      17    H11     19.455915   17.558473   24.041768 H          1 MOL1         0.0832
      18    C7      18.819461   19.620446   23.927844 C.3        1 MOL1        -0.1685
      19    H12     17.858160   19.537470   24.453049 H          1 MOL1         0.0832
      20    H13     19.565099   19.820093   24.709430 H          1 MOL1         0.0832
      21    O1      20.612613   16.928071   21.924216 O.3        1 MOL1        -0.5509
      22    H14     21.201188   16.939223   21.140588 H          1 MOL1         0.3779
@<TRIPOS>BOND
    1     1     2    1
    2     1     3    1
    3     1     4    1
    4     4     5    1
    5     4     6    1
    6     4     7    1
    7     7     8    1
    8     7     9    1
    9     7    10    1
   10    10    11    1
   11    10    12    1
   12    10    13    1
   13    13    14    1
   14    13    15    1
   15    15    16    1
   16    15    17    1
   17     1    18    1
   18    15    18    1
   19    18    19    1
   20    18    20    1
   21    13    21    1
   22    21    22    1
@<TRIPOS>SUBSTRUCTURE
       1 MOL1            1 RESIDUE      1      MOL     
@<SCITEGIC>MOL_PROPERTY
VConf Rank
SciTegic.value.IntegerValue
426

@<SCITEGIC>MOL_PROPERTY
Conf_Id
SciTegic.value.IntegerValue
144

@<SCITEGIC>MOL_PROPERTY
Delta U+W
SciTegic.value.DoubleValue
-3.291

@<SCITEGIC>MOL_PROPERTY
U+W
SciTegic.value.DoubleValue
3.132

@<SCITEGIC>MOL_PROPERTY
Grad RMS
SciTegic.value.DoubleValue
0.000000

@<SCITEGIC>MOL_PROPERTY
U
SciTegic.value.DoubleValue
5.411

@<SCITEGIC>MOL_PROPERTY
W
SciTegic.value.DoubleValue
-2.279

@<SCITEGIC>MOL_PROPERTY
W(PB)
SciTegic.value.DoubleValue
-4.300

@<SCITEGIC>MOL_PROPERTY
W(SA)
SciTegic.value.DoubleValue
2.021

@<SCITEGIC>MOL_PROPERTY
Valence
SciTegic.value.DoubleValue
11.909

@<SCITEGIC>MOL_PROPERTY
Coulomb
SciTegic.value.DoubleValue
-8.733

@<SCITEGIC>MOL_PROPERTY
VdW
SciTegic.value.DoubleValue
2.236

@<SCITEGIC>MOL_PROPERTY
VdW6
SciTegic.value.DoubleValue
-8.936

@<SCITEGIC>MOL_PROPERTY
VdW12
SciTegic.value.DoubleValue
11.172

@<SCITEGIC>MOL_PROPERTY
Bond
SciTegic.value.DoubleValue
0.223

@<SCITEGIC>MOL_PROPERTY
Angle
SciTegic.value.DoubleValue
2.457

@<SCITEGIC>MOL_PROPERTY
Pdih
SciTegic.value.DoubleValue
9.228

@<SCITEGIC>MOL_PROPERTY
Idih
SciTegic.value.DoubleValue
0.000

@<SCITEGIC>MOL_PROPERTY
Tether
SciTegic.value.DoubleValue
0.000

@<TRIPOS>MOLECULE
guest-5_confgen4.mol2 : confsearch ligand conformer 427
          22          22           1
SMALL
USER_CHARGES
 
@<TRIPOS>ATOM
       1    C1      20.876301   19.152308   21.251354 C.3        1 MOL1        -0.1685
       2    H1      21.676222   18.839843   20.566238 H          1 MOL1         0.0832
       3    H2      20.011455   19.393982   20.618647 H          1 MOL1         0.0832
       4    C2      21.364879   20.403428   22.018208 C.3        1 MOL1        -0.1685
       5    H3      21.991228   20.091657   22.865120 H          1 MOL1         0.0832
       6    H4      22.027206   20.985678   21.362992 H          1 MOL1         0.0832
       7    C3      20.243567   21.344893   22.520428 C.3        1 MOL1        -0.1685
       8    H5      19.948127   22.016709   21.702935 H          1 MOL1         0.0832
       9    H6      20.664832   21.992833   23.301279 H          1 MOL1         0.0832
      10    C4      18.966526   20.660970   23.067742 C.3        1 MOL1        -0.1761
      11    H7      18.425036   21.398238   23.675767 H          1 MOL1         0.0832
      12    H8      18.299937   20.418997   22.229886 H          1 MOL1         0.0832
      13    C5      19.217757   19.386857   23.905068 C.3        1 MOL1         0.1218
      14    H9      20.155004   19.495783   24.469135 H          1 MOL1         0.0789
      15    C6      19.280641   18.109876   23.036539 C.3        1 MOL1        -0.1761
      16    H10     19.204691   17.233386   23.693903 H          1 MOL1         0.0832
      17    H11     18.403587   18.071556   22.377453 H          1 MOL1         0.0832
      18    C7      20.562727   17.957798   22.183988 C.3        1 MOL1        -0.1685
      19    H12     21.420648   17.776729   22.845888 H          1 MOL1         0.0832
      20    H13     20.461568   17.051907   21.570868 H          1 MOL1         0.0832
      21    O1      18.143727   19.237074   24.823890 O.3        1 MOL1        -0.5509
      22    H14     17.330409   19.145125   24.286099 H          1 MOL1         0.3779
@<TRIPOS>BOND
    1     1     2    1
    2     1     3    1
    3     1     4    1
    4     4     5    1
    5     4     6    1
    6     4     7    1
    7     7     8    1
    8     7     9    1
    9     7    10    1
   10    10    11    1
   11    10    12    1
   12    10    13    1
   13    13    14    1
   14    13    15    1
   15    15    16    1
   16    15    17    1
   17     1    18    1
   18    15    18    1
   19    18    19    1
   20    18    20    1
   21    13    21    1
   22    21    22    1
@<TRIPOS>SUBSTRUCTURE
       1 MOL1            1 RESIDUE      1      MOL     
@<SCITEGIC>MOL_PROPERTY
VConf Rank
SciTegic.value.IntegerValue
427

@<SCITEGIC>MOL_PROPERTY
Conf_Id
SciTegic.value.IntegerValue
76

@<SCITEGIC>MOL_PROPERTY
Delta U+W
SciTegic.value.DoubleValue
-3.175

@<SCITEGIC>MOL_PROPERTY
U+W
SciTegic.value.DoubleValue
3.248

@<SCITEGIC>MOL_PROPERTY
Grad RMS
SciTegic.value.DoubleValue
0.000000

@<SCITEGIC>MOL_PROPERTY
U
SciTegic.value.DoubleValue
5.336

@<SCITEGIC>MOL_PROPERTY
W
SciTegic.value.DoubleValue
-2.088

@<SCITEGIC>MOL_PROPERTY
W(PB)
SciTegic.value.DoubleValue
-4.098

@<SCITEGIC>MOL_PROPERTY
W(SA)
SciTegic.value.DoubleValue
2.010

@<SCITEGIC>MOL_PROPERTY
Valence
SciTegic.value.DoubleValue
12.390

@<SCITEGIC>MOL_PROPERTY
Coulomb
SciTegic.value.DoubleValue
-9.270

@<SCITEGIC>MOL_PROPERTY
VdW
SciTegic.value.DoubleValue
2.216

@<SCITEGIC>MOL_PROPERTY
VdW6
SciTegic.value.DoubleValue
-8.967

@<SCITEGIC>MOL_PROPERTY
VdW12
SciTegic.value.DoubleValue
11.183

@<SCITEGIC>MOL_PROPERTY
Bond
SciTegic.value.DoubleValue
0.218

@<SCITEGIC>MOL_PROPERTY
Angle
SciTegic.value.DoubleValue
2.426

@<SCITEGIC>MOL_PROPERTY
Pdih
SciTegic.value.DoubleValue
9.745

@<SCITEGIC>MOL_PROPERTY
Idih
SciTegic.value.DoubleValue
0.000

@<SCITEGIC>MOL_PROPERTY
Tether
SciTegic.value.DoubleValue
0.000

@<TRIPOS>MOLECULE
guest-5_confgen4.mol2 : confsearch ligand conformer 428
          22          22           1
SMALL
USER_CHARGES
 
@<TRIPOS>ATOM
       1    C1      21.908769   19.488649   22.331680 C.3        1 MOL1        -0.1685
       2    H1      22.430937   19.890939   21.452883 H          1 MOL1         0.0832
       3    H2      22.695489   19.110254   22.998541 H          1 MOL1         0.0832
       4    C2      21.028725   18.302211   21.870638 C.3        1 MOL1        -0.1685
       5    H3      20.613410   18.518236   20.876995 H          1 MOL1         0.0832
       6    H4      21.681154   17.429239   21.732650 H          1 MOL1         0.0832
       7    C3      19.881702   17.924243   22.836569 C.3        1 MOL1        -0.1685
       8    H5      20.197073   18.031879   23.883370 H          1 MOL1         0.0832
       9    H6      19.653689   16.859219   22.695060 H          1 MOL1         0.0832
      10    C4      18.582211   18.724826   22.567368 C.3        1 MOL1        -0.1761
      11    H7      18.331716   18.658043   21.500923 H          1 MOL1         0.0832
      12    H8      17.753572   18.235550   23.095934 H          1 MOL1         0.0832
      13    C5      18.598827   20.213651   22.982361 C.3        1 MOL1         0.1218
      14    H9      17.690326   20.669746   22.563193 H          1 MOL1         0.0789
      15    C6      19.804393   21.031532   22.454943 C.3        1 MOL1        -0.1761
      16    H10     19.844879   20.970358   21.359727 H          1 MOL1         0.0832
      17    H11     19.614128   22.087693   22.685398 H          1 MOL1         0.0832
      18    C7      21.179042   20.643168   23.058873 C.3        1 MOL1        -0.1685
      19    H12     21.835830   21.523285   23.037748 H          1 MOL1         0.0832
      20    H13     21.065943   20.390473   24.121320 H          1 MOL1         0.0832
      21    O1      18.527436   20.306591   24.401617 O.3        1 MOL1        -0.5509
      22    H14     18.592972   21.258025   24.622435 H          1 MOL1         0.3779
@<TRIPOS>BOND
    1     1     2    1
    2     1     3    1
    3     1     4    1
    4     4     5    1
    5     4     6    1
    6     4     7    1
    7     7     8    1
    8     7     9    1
    9     7    10    1
   10    10    11    1
   11    10    12    1
   12    10    13    1
   13    13    14    1
   14    13    15    1
   15    15    16    1
   16    15    17    1
   17     1    18    1
   18    15    18    1
   19    18    19    1
   20    18    20    1
   21    13    21    1
   22    21    22    1
@<TRIPOS>SUBSTRUCTURE
       1 MOL1            1 RESIDUE      1      MOL     
@<SCITEGIC>MOL_PROPERTY
VConf Rank
SciTegic.value.IntegerValue
428

@<SCITEGIC>MOL_PROPERTY
Conf_Id
SciTegic.value.IntegerValue
95

@<SCITEGIC>MOL_PROPERTY
Delta U+W
SciTegic.value.DoubleValue
-2.289

@<SCITEGIC>MOL_PROPERTY
U+W
SciTegic.value.DoubleValue
4.134

@<SCITEGIC>MOL_PROPERTY
Grad RMS
SciTegic.value.DoubleValue
0.000000

@<SCITEGIC>MOL_PROPERTY
U
SciTegic.value.DoubleValue
6.373

@<SCITEGIC>MOL_PROPERTY
W
SciTegic.value.DoubleValue
-2.240

@<SCITEGIC>MOL_PROPERTY
W(PB)
SciTegic.value.DoubleValue
-4.254

@<SCITEGIC>MOL_PROPERTY
W(SA)
SciTegic.value.DoubleValue
2.015

@<SCITEGIC>MOL_PROPERTY
Valence
SciTegic.value.DoubleValue
12.093

@<SCITEGIC>MOL_PROPERTY
Coulomb
SciTegic.value.DoubleValue
-8.058

@<SCITEGIC>MOL_PROPERTY
VdW
SciTegic.value.DoubleValue
2.339

@<SCITEGIC>MOL_PROPERTY
VdW6
SciTegic.value.DoubleValue
-9.683

@<SCITEGIC>MOL_PROPERTY
VdW12
SciTegic.value.DoubleValue
12.022

@<SCITEGIC>MOL_PROPERTY
Bond
SciTegic.value.DoubleValue
0.268

@<SCITEGIC>MOL_PROPERTY
Angle
SciTegic.value.DoubleValue
3.005

@<SCITEGIC>MOL_PROPERTY
Pdih
SciTegic.value.DoubleValue
8.820

@<SCITEGIC>MOL_PROPERTY
Idih
SciTegic.value.DoubleValue
0.000

@<SCITEGIC>MOL_PROPERTY
Tether
SciTegic.value.DoubleValue
0.000

@<TRIPOS>MOLECULE
guest-5_confgen4.mol2 : confsearch ligand conformer 429
          22          22           1
SMALL
USER_CHARGES
 
@<TRIPOS>ATOM
       1    C1      18.327980   20.120207   22.025673 C.3        1 MOL1        -0.1685
       2    H1      17.341854   19.902012   22.457762 H          1 MOL1         0.0832
       3    H2      18.133186   20.722219   21.127660 H          1 MOL1         0.0832
       4    C2      18.976914   18.781469   21.600239 C.3        1 MOL1        -0.1685
       5    H3      18.708538   17.998867   22.322726 H          1 MOL1         0.0832
       6    H4      18.522449   18.471173   20.649462 H          1 MOL1         0.0832
       7    C3      20.513702   18.822204   21.432493 C.3        1 MOL1        -0.1685
       8    H5      20.836475   19.777488   20.996523 H          1 MOL1         0.0832
       9    H6      20.797766   18.045618   20.709550 H          1 MOL1         0.0832
      10    C4      21.267023   18.533948   22.755643 C.3        1 MOL1        -0.1761
      11    H7      20.861357   17.619676   23.207791 H          1 MOL1         0.0832
      12    H8      22.313872   18.302315   22.520196 H          1 MOL1         0.0832
      13    C5      21.243589   19.661121   23.813313 C.3        1 MOL1         0.1218
      14    H9      21.661203   19.237578   24.738142 H          1 MOL1         0.0789
      15    C6      19.836392   20.208976   24.159699 C.3        1 MOL1        -0.1761
      16    H10     19.192235   19.392358   24.509965 H          1 MOL1         0.0832
      17    H11     19.953774   20.886350   25.015394 H          1 MOL1         0.0832
      18    C7      19.133853   20.990743   23.019207 C.3        1 MOL1        -0.1685
      19    H12     18.444232   21.720259   23.464679 H          1 MOL1         0.0832
      20    H13     19.871145   21.588629   22.467344 H          1 MOL1         0.0832
      21    O1      22.091918   20.723996   23.389604 O.3        1 MOL1        -0.5509
      22    H14     22.956879   20.322612   23.168426 H          1 MOL1         0.3779
@<TRIPOS>BOND
    1     1     2    1
    2     1     3    1
    3     1     4    1
    4     4     5    1
    5     4     6    1
    6     4     7    1
    7     7     8    1
    8     7     9    1
    9     7    10    1
   10    10    11    1
   11    10    12    1
   12    10    13    1
   13    13    14    1
   14    13    15    1
   15    15    16    1
   16    15    17    1
   17     1    18    1
   18    15    18    1
   19    18    19    1
   20    18    20    1
   21    13    21    1
   22    21    22    1
@<TRIPOS>SUBSTRUCTURE
       1 MOL1            1 RESIDUE      1      MOL     
@<SCITEGIC>MOL_PROPERTY
VConf Rank
SciTegic.value.IntegerValue
429

@<SCITEGIC>MOL_PROPERTY
Conf_Id
SciTegic.value.IntegerValue
41

@<SCITEGIC>MOL_PROPERTY
Delta U+W
SciTegic.value.DoubleValue
-2.114

@<SCITEGIC>MOL_PROPERTY
U+W
SciTegic.value.DoubleValue
4.310

@<SCITEGIC>MOL_PROPERTY
Grad RMS
SciTegic.value.DoubleValue
0.000000

@<SCITEGIC>MOL_PROPERTY
U
SciTegic.value.DoubleValue
6.598

@<SCITEGIC>MOL_PROPERTY
W
SciTegic.value.DoubleValue
-2.289

@<SCITEGIC>MOL_PROPERTY
W(PB)
SciTegic.value.DoubleValue
-4.294

@<SCITEGIC>MOL_PROPERTY
W(SA)
SciTegic.value.DoubleValue
2.005

@<SCITEGIC>MOL_PROPERTY
Valence
SciTegic.value.DoubleValue
12.082

@<SCITEGIC>MOL_PROPERTY
Coulomb
SciTegic.value.DoubleValue
-7.801

@<SCITEGIC>MOL_PROPERTY
VdW
SciTegic.value.DoubleValue
2.317

@<SCITEGIC>MOL_PROPERTY
VdW6
SciTegic.value.DoubleValue
-9.658

@<SCITEGIC>MOL_PROPERTY
VdW12
SciTegic.value.DoubleValue
11.975

@<SCITEGIC>MOL_PROPERTY
Bond
SciTegic.value.DoubleValue
0.267

@<SCITEGIC>MOL_PROPERTY
Angle
SciTegic.value.DoubleValue
3.051

@<SCITEGIC>MOL_PROPERTY
Pdih
SciTegic.value.DoubleValue
8.764

@<SCITEGIC>MOL_PROPERTY
Idih
SciTegic.value.DoubleValue
0.000

@<SCITEGIC>MOL_PROPERTY
Tether
SciTegic.value.DoubleValue
0.000

@<TRIPOS>MOLECULE
guest-5_confgen4.mol2 : confsearch ligand conformer 430
          22          22           1
SMALL
USER_CHARGES
 
@<TRIPOS>ATOM
       1    C1      20.293248   21.144150   22.323183 C.3        1 MOL1        -0.1685
       2    H1      20.194995   22.173957   21.953869 H          1 MOL1         0.0832
       3    H2      21.059200   21.171045   23.110438 H          1 MOL1         0.0832
       4    C2      20.753440   20.259385   21.143012 C.3        1 MOL1        -0.1685
       5    H3      19.950124   20.195391   20.396574 H          1 MOL1         0.0832
       6    H4      21.593767   20.755937   20.639181 H          1 MOL1         0.0832
       7    C3      21.201314   18.836011   21.541305 C.3        1 MOL1        -0.1685
       8    H5      22.134400   18.894325   22.117360 H          1 MOL1         0.0832
       9    H6      21.456891   18.292131   20.622066 H          1 MOL1         0.0832
      10    C4      20.146116   18.006507   22.322116 C.3        1 MOL1        -0.1761
      11    H7      19.189454   18.012249   21.784508 H          1 MOL1         0.0832
      12    H8      20.479601   16.960863   22.322261 H          1 MOL1         0.0832
      13    C5      19.921021   18.414097   23.801046 C.3        1 MOL1         0.1218
      14    H9      19.414979   17.567782   24.287822 H          1 MOL1         0.0789
      15    C6      19.012863   19.649876   24.031784 C.3        1 MOL1        -0.1761
      16    H10     17.993553   19.290088   24.223154 H          1 MOL1         0.0832
      17    H11     19.320037   20.151459   24.958892 H          1 MOL1         0.0832
      18    C7      18.929732   20.705655   22.901598 C.3        1 MOL1        -0.1685
      19    H12     18.284291   20.336615   22.093125 H          1 MOL1         0.0832
      20    H13     18.418777   21.590218   23.305518 H          1 MOL1         0.0832
      21    O1      21.169620   18.606658   24.460470 O.3        1 MOL1        -0.5509
      22    H14     20.966464   18.821230   25.393528 H          1 MOL1         0.3779
@<TRIPOS>BOND
    1     1     2    1
    2     1     3    1
    3     1     4    1
    4     4     5    1
    5     4     6    1
    6     4     7    1
    7     7     8    1
    8     7     9    1
    9     7    10    1
   10    10    11    1
   11    10    12    1
   12    10    13    1
   13    13    14    1
   14    13    15    1
   15    15    16    1
   16    15    17    1
   17     1    18    1
   18    15    18    1
   19    18    19    1
   20    18    20    1
   21    13    21    1
   22    21    22    1
@<TRIPOS>SUBSTRUCTURE
       1 MOL1            1 RESIDUE      1      MOL     
@<SCITEGIC>MOL_PROPERTY
VConf Rank
SciTegic.value.IntegerValue
430

@<SCITEGIC>MOL_PROPERTY
Conf_Id
SciTegic.value.IntegerValue
104

@<SCITEGIC>MOL_PROPERTY
Delta U+W
SciTegic.value.DoubleValue
-1.172

@<SCITEGIC>MOL_PROPERTY
U+W
SciTegic.value.DoubleValue
5.252

@<SCITEGIC>MOL_PROPERTY
Grad RMS
SciTegic.value.DoubleValue
0.000000

@<SCITEGIC>MOL_PROPERTY
U
SciTegic.value.DoubleValue
7.482

@<SCITEGIC>MOL_PROPERTY
W
SciTegic.value.DoubleValue
-2.230

@<SCITEGIC>MOL_PROPERTY
W(PB)
SciTegic.value.DoubleValue
-4.220

@<SCITEGIC>MOL_PROPERTY
W(SA)
SciTegic.value.DoubleValue
1.990

@<SCITEGIC>MOL_PROPERTY
Valence
SciTegic.value.DoubleValue
12.309

@<SCITEGIC>MOL_PROPERTY
Coulomb
SciTegic.value.DoubleValue
-7.084

@<SCITEGIC>MOL_PROPERTY
VdW
SciTegic.value.DoubleValue
2.258

@<SCITEGIC>MOL_PROPERTY
VdW6
SciTegic.value.DoubleValue
-9.770

@<SCITEGIC>MOL_PROPERTY
VdW12
SciTegic.value.DoubleValue
12.028

@<SCITEGIC>MOL_PROPERTY
Bond
SciTegic.value.DoubleValue
0.284

@<SCITEGIC>MOL_PROPERTY
Angle
SciTegic.value.DoubleValue
3.491

@<SCITEGIC>MOL_PROPERTY
Pdih
SciTegic.value.DoubleValue
8.535

@<SCITEGIC>MOL_PROPERTY
Idih
SciTegic.value.DoubleValue
0.000

@<SCITEGIC>MOL_PROPERTY
Tether
SciTegic.value.DoubleValue
0.000

@<TRIPOS>MOLECULE
guest-5_confgen4.mol2 : confsearch ligand conformer 431
          22          22           1
SMALL
USER_CHARGES
 
@<TRIPOS>ATOM
       1    C1      19.682300   18.814425   24.069854 C.3        1 MOL1        -0.1685
       2    H1      18.973922   19.593864   24.381556 H          1 MOL1         0.0832
       3    H2      19.690406   18.072138   24.879720 H          1 MOL1         0.0832
       4    C2      21.111959   19.387671   23.939671 C.3        1 MOL1        -0.1685
       5    H3      21.552080   19.462685   24.943621 H          1 MOL1         0.0832
       6    H4      21.745235   18.667501   23.405205 H          1 MOL1         0.0832
       7    C3      21.218003   20.782459   23.272591 C.3        1 MOL1        -0.1685
       8    H5      22.220293   20.882739   22.833646 H          1 MOL1         0.0832
       9    H6      21.166557   21.548270   24.058604 H          1 MOL1         0.0832
      10    C4      20.153929   21.140994   22.200022 C.3        1 MOL1        -0.1761
      11    H7      19.224171   21.438111   22.702243 H          1 MOL1         0.0832
      12    H8      20.495396   22.040431   21.671425 H          1 MOL1         0.0832
      13    C5      19.824759   20.059735   21.145268 C.3        1 MOL1         0.1218
      14    H9      19.393723   20.573424   20.273940 H          1 MOL1         0.0789
      15    C6      18.766065   19.046069   21.635081 C.3        1 MOL1        -0.1761
      16    H10     17.867321   19.596859   21.941594 H          1 MOL1         0.0832
      17    H11     18.458459   18.431921   20.778667 H          1 MOL1         0.0832
      18    C7      19.193154   18.102144   22.786338 C.3        1 MOL1        -0.1685
      19    H12     18.328243   17.477137   23.047119 H          1 MOL1         0.0832
      20    H13     19.963858   17.405294   22.430115 H          1 MOL1         0.0832
      21    O1      21.003942   19.379931   20.743320 O.3        1 MOL1        -0.5509
      22    H14     21.369932   19.023720   21.577257 H          1 MOL1         0.3779
@<TRIPOS>BOND
    1     1     2    1
    2     1     3    1
    3     1     4    1
    4     4     5    1
    5     4     6    1
    6     4     7    1
    7     7     8    1
    8     7     9    1
    9     7    10    1
   10    10    11    1
   11    10    12    1
   12    10    13    1
   13    13    14    1
   14    13    15    1
   15    15    16    1
   16    15    17    1
   17     1    18    1
   18    15    18    1
   19    18    19    1
   20    18    20    1
   21    13    21    1
   22    21    22    1
@<TRIPOS>SUBSTRUCTURE
       1 MOL1            1 RESIDUE      1      MOL     
@<SCITEGIC>MOL_PROPERTY
VConf Rank
SciTegic.value.IntegerValue
431

@<SCITEGIC>MOL_PROPERTY
Conf_Id
SciTegic.value.IntegerValue
99

@<SCITEGIC>MOL_PROPERTY
Delta U+W
SciTegic.value.DoubleValue
-3.852

@<SCITEGIC>MOL_PROPERTY
U+W
SciTegic.value.DoubleValue
2.572

@<SCITEGIC>MOL_PROPERTY
Grad RMS
SciTegic.value.DoubleValue
0.000000

@<SCITEGIC>MOL_PROPERTY
U
SciTegic.value.DoubleValue
3.922

@<SCITEGIC>MOL_PROPERTY
W
SciTegic.value.DoubleValue
-1.350

@<SCITEGIC>MOL_PROPERTY
W(PB)
SciTegic.value.DoubleValue
-3.345

@<SCITEGIC>MOL_PROPERTY
W(SA)
SciTegic.value.DoubleValue
1.995

@<SCITEGIC>MOL_PROPERTY
Valence
SciTegic.value.DoubleValue
12.571

@<SCITEGIC>MOL_PROPERTY
Coulomb
SciTegic.value.DoubleValue
-10.581

@<SCITEGIC>MOL_PROPERTY
VdW
SciTegic.value.DoubleValue
1.932

@<SCITEGIC>MOL_PROPERTY
VdW6
SciTegic.value.DoubleValue
-10.483

@<SCITEGIC>MOL_PROPERTY
VdW12
SciTegic.value.DoubleValue
12.415

@<SCITEGIC>MOL_PROPERTY
Bond
SciTegic.value.DoubleValue
0.268

@<SCITEGIC>MOL_PROPERTY
Angle
SciTegic.value.DoubleValue
3.728

@<SCITEGIC>MOL_PROPERTY
Pdih
SciTegic.value.DoubleValue
8.575

@<SCITEGIC>MOL_PROPERTY
Idih
SciTegic.value.DoubleValue
0.000

@<SCITEGIC>MOL_PROPERTY
Tether
SciTegic.value.DoubleValue
0.000

@<TRIPOS>MOLECULE
guest-5_confgen4.mol2 : confsearch ligand conformer 432
          22          22           1
SMALL
USER_CHARGES
 
@<TRIPOS>ATOM
       1    C1      20.137551   17.927503   22.618775 C.3        1 MOL1        -0.1685
       2    H1      20.672011   16.973909   22.729690 H          1 MOL1         0.0832
       3    H2      19.113498   17.647073   22.338188 H          1 MOL1         0.0832
       4    C2      20.812435   18.721281   21.461926 C.3        1 MOL1        -0.1685
       5    H3      21.638901   18.111187   21.072014 H          1 MOL1         0.0832
       6    H4      20.116403   18.826843   20.619045 H          1 MOL1         0.0832
       7    C3      21.387567   20.110939   21.837188 C.3        1 MOL1        -0.1685
       8    H5      21.996710   20.472027   20.997375 H          1 MOL1         0.0832
       9    H6      22.097140   20.006166   22.667308 H          1 MOL1         0.0832
      10    C4      20.343865   21.211572   22.175009 C.3        1 MOL1        -0.1761
      11    H7      20.839811   21.979654   22.782322 H          1 MOL1         0.0832
      12    H8      20.059597   21.717731   21.242812 H          1 MOL1         0.0832
      13    C5      19.038531   20.787178   22.892051 C.3        1 MOL1         0.1218
      14    H9      18.551201   21.709128   23.240320 H          1 MOL1         0.0789
      15    C6      19.203331   19.870484   24.129249 C.3        1 MOL1        -0.1761
      16    H10     19.564249   20.480096   24.967612 H          1 MOL1         0.0832
      17    H11     18.201537   19.532699   24.426413 H          1 MOL1         0.0832
      18    C7      20.123822   18.624862   24.003065 C.3        1 MOL1        -0.1685
      19    H12     21.147747   18.890032   24.294321 H          1 MOL1         0.0832
      20    H13     19.803408   17.892641   24.756664 H          1 MOL1         0.0832
      21    O1      18.160536   20.175778   21.960086 O.3        1 MOL1        -0.5509
      22    H14     18.636020   19.367116   21.682753 H          1 MOL1         0.3779
@<TRIPOS>BOND
    1     1     2    1
    2     1     3    1
    3     1     4    1
    4     4     5    1
    5     4     6    1
    6     4     7    1
    7     7     8    1
    8     7     9    1
    9     7    10    1
   10    10    11    1
   11    10    12    1
   12    10    13    1
   13    13    14    1
   14    13    15    1
   15    15    16    1
   16    15    17    1
   17     1    18    1
   18    15    18    1
   19    18    19    1
   20    18    20    1
   21    13    21    1
   22    21    22    1
@<TRIPOS>SUBSTRUCTURE
       1 MOL1            1 RESIDUE      1      MOL     
@<SCITEGIC>MOL_PROPERTY
VConf Rank
SciTegic.value.IntegerValue
432

@<SCITEGIC>MOL_PROPERTY
Conf_Id
SciTegic.value.IntegerValue
98

@<SCITEGIC>MOL_PROPERTY
Delta U+W
SciTegic.value.DoubleValue
0.930

@<SCITEGIC>MOL_PROPERTY
U+W
SciTegic.value.DoubleValue
7.353

@<SCITEGIC>MOL_PROPERTY
Grad RMS
SciTegic.value.DoubleValue
0.000000

@<SCITEGIC>MOL_PROPERTY
U
SciTegic.value.DoubleValue
8.455

@<SCITEGIC>MOL_PROPERTY
W
SciTegic.value.DoubleValue
-1.102

@<SCITEGIC>MOL_PROPERTY
W(PB)
SciTegic.value.DoubleValue
-3.101

@<SCITEGIC>MOL_PROPERTY
W(SA)
SciTegic.value.DoubleValue
2.000

@<SCITEGIC>MOL_PROPERTY
Valence
SciTegic.value.DoubleValue
15.601

@<SCITEGIC>MOL_PROPERTY
Coulomb
SciTegic.value.DoubleValue
-10.573

@<SCITEGIC>MOL_PROPERTY
VdW
SciTegic.value.DoubleValue
3.427

@<SCITEGIC>MOL_PROPERTY
VdW6
SciTegic.value.DoubleValue
-11.360

@<SCITEGIC>MOL_PROPERTY
VdW12
SciTegic.value.DoubleValue
14.787

@<SCITEGIC>MOL_PROPERTY
Bond
SciTegic.value.DoubleValue
0.471

@<SCITEGIC>MOL_PROPERTY
Angle
SciTegic.value.DoubleValue
5.445

@<SCITEGIC>MOL_PROPERTY
Pdih
SciTegic.value.DoubleValue
9.685

@<SCITEGIC>MOL_PROPERTY
Idih
SciTegic.value.DoubleValue
0.000

@<SCITEGIC>MOL_PROPERTY
Tether
SciTegic.value.DoubleValue
0.000

@<TRIPOS>MOLECULE
guest-5_confgen4.mol2 : confsearch ligand conformer 433
          22          22           1
SMALL
USER_CHARGES
 
@<TRIPOS>ATOM
       1    C1      20.638306   19.400033   21.058599 C.3        1 MOL1        -0.1685
       2    H1      20.467453   20.479529   20.957218 H          1 MOL1         0.0832
       3    H2      21.109851   19.096060   20.114164 H          1 MOL1         0.0832
       4    C2      19.280328   18.664823   21.190962 C.3        1 MOL1        -0.1685
       5    H3      18.693509   18.889496   20.289829 H          1 MOL1         0.0832
       6    H4      19.446824   17.579176   21.174441 H          1 MOL1         0.0832
       7    C3      18.419647   19.030552   22.431977 C.3        1 MOL1        -0.1685
       8    H5      18.489627   18.235813   23.185971 H          1 MOL1         0.0832
       9    H6      17.364482   19.038423   22.126690 H          1 MOL1         0.0832
      10    C4      18.757798   20.396020   23.086853 C.3        1 MOL1        -0.1761
      11    H7      18.748817   21.176821   22.316207 H          1 MOL1         0.0832
      12    H8      17.939243   20.663730   23.768531 H          1 MOL1         0.0832
      13    C5      20.104228   20.461884   23.865735 C.3        1 MOL1         0.1218
      14    H9      20.620881   21.386886   23.571612 H          1 MOL1         0.0789
      15    C6      21.074337   19.274759   23.642390 C.3        1 MOL1        -0.1761
      16    H10     21.922947   19.374665   24.331546 H          1 MOL1         0.0832
      17    H11     20.582815   18.337405   23.929379 H          1 MOL1         0.0832
      18    C7      21.641766   19.141737   22.207072 C.3        1 MOL1        -0.1685
      19    H12     22.481424   19.840475   22.090648 H          1 MOL1         0.0832
      20    H13     22.068702   18.136036   22.093222 H          1 MOL1         0.0832
      21    O1      19.816843   20.521424   25.258230 O.3        1 MOL1        -0.5509
      22    H14     20.675425   20.620055   25.720061 H          1 MOL1         0.3779
@<TRIPOS>BOND
    1     1     2    1
    2     1     3    1
    3     1     4    1
    4     4     5    1
    5     4     6    1
    6     4     7    1
    7     7     8    1
    8     7     9    1
    9     7    10    1
   10    10    11    1
   11    10    12    1
   12    10    13    1
   13    13    14    1
   14    13    15    1
   15    15    16    1
   16    15    17    1
   17     1    18    1
   18    15    18    1
   19    18    19    1
   20    18    20    1
   21    13    21    1
   22    21    22    1
@<TRIPOS>SUBSTRUCTURE
       1 MOL1            1 RESIDUE      1      MOL     
@<SCITEGIC>MOL_PROPERTY
VConf Rank
SciTegic.value.IntegerValue
433

@<SCITEGIC>MOL_PROPERTY
Conf_Id
SciTegic.value.IntegerValue
141

@<SCITEGIC>MOL_PROPERTY
Delta U+W
SciTegic.value.DoubleValue
0.000

@<SCITEGIC>MOL_PROPERTY
U+W
SciTegic.value.DoubleValue
6.423

@<SCITEGIC>MOL_PROPERTY
Grad RMS
SciTegic.value.DoubleValue
0.000000

@<SCITEGIC>MOL_PROPERTY
U
SciTegic.value.DoubleValue
8.781

@<SCITEGIC>MOL_PROPERTY
W
SciTegic.value.DoubleValue
-2.358

@<SCITEGIC>MOL_PROPERTY
W(PB)
SciTegic.value.DoubleValue
-4.373

@<SCITEGIC>MOL_PROPERTY
W(SA)
SciTegic.value.DoubleValue
2.015

@<SCITEGIC>MOL_PROPERTY
Valence
SciTegic.value.DoubleValue
13.328

@<SCITEGIC>MOL_PROPERTY
Coulomb
SciTegic.value.DoubleValue
-8.387

@<SCITEGIC>MOL_PROPERTY
VdW
SciTegic.value.DoubleValue
3.840

@<SCITEGIC>MOL_PROPERTY
VdW6
SciTegic.value.DoubleValue
-9.744

@<SCITEGIC>MOL_PROPERTY
VdW12
SciTegic.value.DoubleValue
13.584

@<SCITEGIC>MOL_PROPERTY
Bond
SciTegic.value.DoubleValue
0.436

@<SCITEGIC>MOL_PROPERTY
Angle
SciTegic.value.DoubleValue
3.478

@<SCITEGIC>MOL_PROPERTY
Pdih
SciTegic.value.DoubleValue
9.415

@<SCITEGIC>MOL_PROPERTY
Idih
SciTegic.value.DoubleValue
0.000

@<SCITEGIC>MOL_PROPERTY
Tether
SciTegic.value.DoubleValue
0.000

@<TRIPOS>MOLECULE
guest-5_confgen4.mol2 : confsearch ligand conformer 434
          22          22           1
SMALL
USER_CHARGES
 
@<TRIPOS>ATOM
       1    C1      20.297582   18.045235   21.944211 C.3        1 MOL1        -0.1685
       2    H1      20.437923   18.541982   20.974594 H          1 MOL1         0.0832
       3    H2      20.503608   16.979922   21.772262 H          1 MOL1         0.0832
       4    C2      18.830633   18.168635   22.422213 C.3        1 MOL1        -0.1685
       5    H3      18.194730   17.566209   21.759215 H          1 MOL1         0.0832
       6    H4      18.733428   17.717931   23.419357 H          1 MOL1         0.0832
       7    C3      18.266543   19.607764   22.454449 C.3        1 MOL1        -0.1685
       8    H5      17.251064   19.568232   22.871663 H          1 MOL1         0.0832
       9    H6      18.153809   19.978578   21.426467 H          1 MOL1         0.0832
      10    C4      19.100456   20.618831   23.278775 C.3        1 MOL1        -0.1761
      11    H7      18.488676   21.520225   23.415523 H          1 MOL1         0.0832
      12    H8      19.298013   20.228168   24.285427 H          1 MOL1         0.0832
      13    C5      20.422364   21.010745   22.581214 C.3        1 MOL1         0.1218
      14    H9      20.255959   20.994760   21.494523 H          1 MOL1         0.0789
      15    C6      21.617062   20.084065   22.902549 C.3        1 MOL1        -0.1761
      16    H10     22.381499   20.250105   22.132538 H          1 MOL1         0.0832
      17    H11     22.073564   20.395562   23.851594 H          1 MOL1         0.0832
      18    C7      21.315654   18.566709   22.985190 C.3        1 MOL1        -0.1685
      19    H12     22.263186   18.025138   22.859862 H          1 MOL1         0.0832
      20    H13     20.965399   18.316188   23.995769 H          1 MOL1         0.0832
      21    O1      20.772459   22.332818   22.972078 O.3        1 MOL1        -0.5509
      22    H14     20.035447   22.914707   22.691300 H          1 MOL1         0.3779
@<TRIPOS>BOND
    1     1     2    1
    2     1     3    1
    3     1     4    1
    4     4     5    1
    5     4     6    1
    6     4     7    1
    7     7     8    1
    8     7     9    1
    9     7    10    1
   10    10    11    1
   11    10    12    1
   12    10    13    1
   13    13    14    1
   14    13    15    1
   15    15    16    1
   16    15    17    1
   17     1    18    1
   18    15    18    1
   19    18    19    1
   20    18    20    1
   21    13    21    1
   22    21    22    1
@<TRIPOS>SUBSTRUCTURE
       1 MOL1            1 RESIDUE      1      MOL     
@<SCITEGIC>MOL_PROPERTY
VConf Rank
SciTegic.value.IntegerValue
434

@<SCITEGIC>MOL_PROPERTY
Conf_Id
SciTegic.value.IntegerValue
144

@<SCITEGIC>MOL_PROPERTY
Delta U+W
SciTegic.value.DoubleValue
-3.291

@<SCITEGIC>MOL_PROPERTY
U+W
SciTegic.value.DoubleValue
3.132

@<SCITEGIC>MOL_PROPERTY
Grad RMS
SciTegic.value.DoubleValue
0.000000

@<SCITEGIC>MOL_PROPERTY
U
SciTegic.value.DoubleValue
5.411

@<SCITEGIC>MOL_PROPERTY
W
SciTegic.value.DoubleValue
-2.279

@<SCITEGIC>MOL_PROPERTY
W(PB)
SciTegic.value.DoubleValue
-4.300

@<SCITEGIC>MOL_PROPERTY
W(SA)
SciTegic.value.DoubleValue
2.021

@<SCITEGIC>MOL_PROPERTY
Valence
SciTegic.value.DoubleValue
11.909

@<SCITEGIC>MOL_PROPERTY
Coulomb
SciTegic.value.DoubleValue
-8.733

@<SCITEGIC>MOL_PROPERTY
VdW
SciTegic.value.DoubleValue
2.236

@<SCITEGIC>MOL_PROPERTY
VdW6
SciTegic.value.DoubleValue
-8.936

@<SCITEGIC>MOL_PROPERTY
VdW12
SciTegic.value.DoubleValue
11.172

@<SCITEGIC>MOL_PROPERTY
Bond
SciTegic.value.DoubleValue
0.223

@<SCITEGIC>MOL_PROPERTY
Angle
SciTegic.value.DoubleValue
2.457

@<SCITEGIC>MOL_PROPERTY
Pdih
SciTegic.value.DoubleValue
9.228

@<SCITEGIC>MOL_PROPERTY
Idih
SciTegic.value.DoubleValue
0.000

@<SCITEGIC>MOL_PROPERTY
Tether
SciTegic.value.DoubleValue
0.000

@<TRIPOS>MOLECULE
guest-5_confgen4.mol2 : confsearch ligand conformer 435
          22          22           1
SMALL
USER_CHARGES
 
@<TRIPOS>ATOM
       1    C1      19.189283   19.544998   24.215299 C.3        1 MOL1        -0.1685
       2    H1      18.553936   19.758224   25.085792 H          1 MOL1         0.0832
       3    H2      19.846552   18.717176   24.514280 H          1 MOL1         0.0832
       4    C2      20.012283   20.816187   23.900935 C.3        1 MOL1        -0.1685
       5    H3      19.401636   21.509298   23.306391 H          1 MOL1         0.0832
       6    H4      20.223289   21.344379   24.840876 H          1 MOL1         0.0832
       7    C3      21.360167   20.564523   23.182747 C.3        1 MOL1        -0.1685
       8    H5      22.122465   20.310791   23.932039 H          1 MOL1         0.0832
       9    H6      21.689250   21.510474   22.731196 H          1 MOL1         0.0832
      10    C4      21.364301   19.459713   22.097612 C.3        1 MOL1        -0.1761
      11    H7      22.247315   19.615437   21.463178 H          1 MOL1         0.0832
      12    H8      21.511157   18.483549   22.577645 H          1 MOL1         0.0832
      13    C5      20.097368   19.409244   21.214477 C.3        1 MOL1         0.1218
      14    H9      19.713361   20.428077   21.062859 H          1 MOL1         0.0789
      15    C6      18.987077   18.521538   21.821280 C.3        1 MOL1        -0.1761
      16    H10     18.233552   18.322738   21.047453 H          1 MOL1         0.0832
      17    H11     19.407092   17.544566   22.093678 H          1 MOL1         0.0832
      18    C7      18.263275   19.122659   23.049481 C.3        1 MOL1        -0.1685
      19    H12     17.661096   19.984651   22.731244 H          1 MOL1         0.0832
      20    H13     17.546554   18.378799   23.423340 H          1 MOL1         0.0832
      21    O1      20.453840   18.860493   19.952727 O.3        1 MOL1        -0.5509
      22    H14     20.791224   17.958110   20.128900 H          1 MOL1         0.3779
@<TRIPOS>BOND
    1     1     2    1
    2     1     3    1
    3     1     4    1
    4     4     5    1
    5     4     6    1
    6     4     7    1
    7     7     8    1
    8     7     9    1
    9     7    10    1
   10    10    11    1
   11    10    12    1
   12    10    13    1
   13    13    14    1
   14    13    15    1
   15    15    16    1
   16    15    17    1
   17     1    18    1
   18    15    18    1
   19    18    19    1
   20    18    20    1
   21    13    21    1
   22    21    22    1
@<TRIPOS>SUBSTRUCTURE
       1 MOL1            1 RESIDUE      1      MOL     
@<SCITEGIC>MOL_PROPERTY
VConf Rank
SciTegic.value.IntegerValue
435

@<SCITEGIC>MOL_PROPERTY
Conf_Id
SciTegic.value.IntegerValue
76

@<SCITEGIC>MOL_PROPERTY
Delta U+W
SciTegic.value.DoubleValue
-3.175

@<SCITEGIC>MOL_PROPERTY
U+W
SciTegic.value.DoubleValue
3.248

@<SCITEGIC>MOL_PROPERTY
Grad RMS
SciTegic.value.DoubleValue
0.000000

@<SCITEGIC>MOL_PROPERTY
U
SciTegic.value.DoubleValue
5.336

@<SCITEGIC>MOL_PROPERTY
W
SciTegic.value.DoubleValue
-2.088

@<SCITEGIC>MOL_PROPERTY
W(PB)
SciTegic.value.DoubleValue
-4.098

@<SCITEGIC>MOL_PROPERTY
W(SA)
SciTegic.value.DoubleValue
2.010

@<SCITEGIC>MOL_PROPERTY
Valence
SciTegic.value.DoubleValue
12.390

@<SCITEGIC>MOL_PROPERTY
Coulomb
SciTegic.value.DoubleValue
-9.270

@<SCITEGIC>MOL_PROPERTY
VdW
SciTegic.value.DoubleValue
2.216

@<SCITEGIC>MOL_PROPERTY
VdW6
SciTegic.value.DoubleValue
-8.967

@<SCITEGIC>MOL_PROPERTY
VdW12
SciTegic.value.DoubleValue
11.183

@<SCITEGIC>MOL_PROPERTY
Bond
SciTegic.value.DoubleValue
0.218

@<SCITEGIC>MOL_PROPERTY
Angle
SciTegic.value.DoubleValue
2.426

@<SCITEGIC>MOL_PROPERTY
Pdih
SciTegic.value.DoubleValue
9.745

@<SCITEGIC>MOL_PROPERTY
Idih
SciTegic.value.DoubleValue
0.000

@<SCITEGIC>MOL_PROPERTY
Tether
SciTegic.value.DoubleValue
0.000

@<TRIPOS>MOLECULE
guest-5_confgen4.mol2 : confsearch ligand conformer 436
          22          22           1
SMALL
USER_CHARGES
 
@<TRIPOS>ATOM
       1    C1      21.908917   19.200955   22.626303 C.3        1 MOL1        -0.1685
       2    H1      22.523849   19.034433   21.731367 H          1 MOL1         0.0832
       3    H2      22.608310   19.197352   23.473447 H          1 MOL1         0.0832
       4    C2      20.936072   18.006640   22.774143 C.3        1 MOL1        -0.1685
       5    H3      20.607665   17.676020   21.779498 H          1 MOL1         0.0832
       6    H4      21.498001   17.161131   23.193827 H          1 MOL1         0.0832
       7    C3      19.698388   18.276811   23.661097 C.3        1 MOL1        -0.1685
       8    H5      19.959194   18.913763   24.517315 H          1 MOL1         0.0832
       9    H6      19.366183   17.319105   24.083862 H          1 MOL1         0.0832
      10    C4      18.511358   18.879305   22.867346 C.3        1 MOL1        -0.1761
      11    H7      18.320521   18.262309   21.979985 H          1 MOL1         0.0832
      12    H8      17.604270   18.801549   23.480990 H          1 MOL1         0.0832
      13    C5      18.662723   20.352794   22.425739 C.3        1 MOL1         0.1218
      14    H9      17.835763   20.562363   21.731971 H          1 MOL1         0.0789
      15    C6      19.979125   20.685339   21.679422 C.3        1 MOL1        -0.1761
      16    H10     20.079392   20.040671   20.796683 H          1 MOL1         0.0832
      17    H11     19.889891   21.707830   21.290401 H          1 MOL1         0.0832
      18    C7      21.264698   20.605341   22.543204 C.3        1 MOL1        -0.1685
      19    H12     22.012402   21.295139   22.129030 H          1 MOL1         0.0832
      20    H13     21.060610   20.972903   23.557446 H          1 MOL1         0.0832
      21    O1      18.515480   21.200775   23.560318 O.3        1 MOL1        -0.5509
      22    H14     18.669408   22.115279   23.246833 H          1 MOL1         0.3779
@<TRIPOS>BOND
    1     1     2    1
    2     1     3    1
    3     1     4    1
    4     4     5    1
    5     4     6    1
    6     4     7    1
    7     7     8    1
    8     7     9    1
    9     7    10    1
   10    10    11    1
   11    10    12    1
   12    10    13    1
   13    13    14    1
   14    13    15    1
   15    15    16    1
   16    15    17    1
   17     1    18    1
   18    15    18    1
   19    18    19    1
   20    18    20    1
   21    13    21    1
   22    21    22    1
@<TRIPOS>SUBSTRUCTURE
       1 MOL1            1 RESIDUE      1      MOL     
@<SCITEGIC>MOL_PROPERTY
VConf Rank
SciTegic.value.IntegerValue
436

@<SCITEGIC>MOL_PROPERTY
Conf_Id
SciTegic.value.IntegerValue
95

@<SCITEGIC>MOL_PROPERTY
Delta U+W
SciTegic.value.DoubleValue
-2.289

@<SCITEGIC>MOL_PROPERTY
U+W
SciTegic.value.DoubleValue
4.134

@<SCITEGIC>MOL_PROPERTY
Grad RMS
SciTegic.value.DoubleValue
0.000000

@<SCITEGIC>MOL_PROPERTY
U
SciTegic.value.DoubleValue
6.373

@<SCITEGIC>MOL_PROPERTY
W
SciTegic.value.DoubleValue
-2.240

@<SCITEGIC>MOL_PROPERTY
W(PB)
SciTegic.value.DoubleValue
-4.254

@<SCITEGIC>MOL_PROPERTY
W(SA)
SciTegic.value.DoubleValue
2.015

@<SCITEGIC>MOL_PROPERTY
Valence
SciTegic.value.DoubleValue
12.093

@<SCITEGIC>MOL_PROPERTY
Coulomb
SciTegic.value.DoubleValue
-8.058

@<SCITEGIC>MOL_PROPERTY
VdW
SciTegic.value.DoubleValue
2.339

@<SCITEGIC>MOL_PROPERTY
VdW6
SciTegic.value.DoubleValue
-9.683

@<SCITEGIC>MOL_PROPERTY
VdW12
SciTegic.value.DoubleValue
12.022

@<SCITEGIC>MOL_PROPERTY
Bond
SciTegic.value.DoubleValue
0.268

@<SCITEGIC>MOL_PROPERTY
Angle
SciTegic.value.DoubleValue
3.005

@<SCITEGIC>MOL_PROPERTY
Pdih
SciTegic.value.DoubleValue
8.820

@<SCITEGIC>MOL_PROPERTY
Idih
SciTegic.value.DoubleValue
0.000

@<SCITEGIC>MOL_PROPERTY
Tether
SciTegic.value.DoubleValue
0.000

@<TRIPOS>MOLECULE
guest-5_confgen4.mol2 : confsearch ligand conformer 437
          22          22           1
SMALL
USER_CHARGES
 
@<TRIPOS>ATOM
       1    C1      18.329035   19.232071   21.963876 C.3        1 MOL1        -0.1685
       2    H1      17.747356   19.830566   21.249588 H          1 MOL1         0.0832
       3    H2      17.738036   18.323331   22.141928 H          1 MOL1         0.0832
       4    C2      18.436282   20.027132   23.287019 C.3        1 MOL1        -0.1685
       5    H3      18.527889   21.098664   23.063622 H          1 MOL1         0.0832
       6    H4      17.484623   19.920088   23.825245 H          1 MOL1         0.0832
       7    C3      19.591836   19.594983   24.219465 C.3        1 MOL1        -0.1685
       8    H5      19.730501   18.505494   24.194826 H          1 MOL1         0.0832
       9    H6      19.307529   19.842943   25.251023 H          1 MOL1         0.0832
      10    C4      20.919450   20.330089   23.905823 C.3        1 MOL1        -0.1761
      11    H7      20.728210   21.409702   23.853306 H          1 MOL1         0.0832
      12    H8      21.603347   20.196690   24.754039 H          1 MOL1         0.0832
      13    C5      21.652136   19.894359   22.616231 C.3        1 MOL1         0.1218
      14    H9      22.462557   20.618968   22.451124 H          1 MOL1         0.0789
      15    C6      20.780997   19.887600   21.335057 C.3        1 MOL1        -0.1761
      16    H10     20.351138   20.883671   21.169068 H          1 MOL1         0.0832
      17    H11     21.453438   19.706076   20.486706 H          1 MOL1         0.0832
      18    C7      19.663691   18.812411   21.302854 C.3        1 MOL1        -0.1685
      19    H12     19.454726   18.552395   20.256459 H          1 MOL1         0.0832
      20    H13     20.025269   17.884471   21.765247 H          1 MOL1         0.0832
      21    O1      22.238023   18.611573   22.816448 O.3        1 MOL1        -0.5509
      22    H14     22.760266   18.666538   23.642539 H          1 MOL1         0.3779
@<TRIPOS>BOND
    1     1     2    1
    2     1     3    1
    3     1     4    1
    4     4     5    1
    5     4     6    1
    6     4     7    1
    7     7     8    1
    8     7     9    1
    9     7    10    1
   10    10    11    1
   11    10    12    1
   12    10    13    1
   13    13    14    1
   14    13    15    1
   15    15    16    1
   16    15    17    1
   17     1    18    1
   18    15    18    1
   19    18    19    1
   20    18    20    1
   21    13    21    1
   22    21    22    1
@<TRIPOS>SUBSTRUCTURE
       1 MOL1            1 RESIDUE      1      MOL     
@<SCITEGIC>MOL_PROPERTY
VConf Rank
SciTegic.value.IntegerValue
437

@<SCITEGIC>MOL_PROPERTY
Conf_Id
SciTegic.value.IntegerValue
41

@<SCITEGIC>MOL_PROPERTY
Delta U+W
SciTegic.value.DoubleValue
-2.114

@<SCITEGIC>MOL_PROPERTY
U+W
SciTegic.value.DoubleValue
4.310

@<SCITEGIC>MOL_PROPERTY
Grad RMS
SciTegic.value.DoubleValue
0.000000

@<SCITEGIC>MOL_PROPERTY
U
SciTegic.value.DoubleValue
6.598

@<SCITEGIC>MOL_PROPERTY
W
SciTegic.value.DoubleValue
-2.289

@<SCITEGIC>MOL_PROPERTY
W(PB)
SciTegic.value.DoubleValue
-4.294

@<SCITEGIC>MOL_PROPERTY
W(SA)
SciTegic.value.DoubleValue
2.005

@<SCITEGIC>MOL_PROPERTY
Valence
SciTegic.value.DoubleValue
12.082

@<SCITEGIC>MOL_PROPERTY
Coulomb
SciTegic.value.DoubleValue
-7.801

@<SCITEGIC>MOL_PROPERTY
VdW
SciTegic.value.DoubleValue
2.317

@<SCITEGIC>MOL_PROPERTY
VdW6
SciTegic.value.DoubleValue
-9.658

@<SCITEGIC>MOL_PROPERTY
VdW12
SciTegic.value.DoubleValue
11.975

@<SCITEGIC>MOL_PROPERTY
Bond
SciTegic.value.DoubleValue
0.267

@<SCITEGIC>MOL_PROPERTY
Angle
SciTegic.value.DoubleValue
3.051

@<SCITEGIC>MOL_PROPERTY
Pdih
SciTegic.value.DoubleValue
8.764

@<SCITEGIC>MOL_PROPERTY
Idih
SciTegic.value.DoubleValue
0.000

@<SCITEGIC>MOL_PROPERTY
Tether
SciTegic.value.DoubleValue
0.000

@<TRIPOS>MOLECULE
guest-5_confgen4.mol2 : confsearch ligand conformer 438
          22          22           1
SMALL
USER_CHARGES
 
@<TRIPOS>ATOM
       1    C1      21.208614   18.470476   23.328182 C.3        1 MOL1        -0.1685
       2    H1      22.061490   17.799545   23.498487 H          1 MOL1         0.0832
       3    H2      20.814925   18.726395   24.321506 H          1 MOL1         0.0832
       4    C2      20.154227   17.697025   22.505122 C.3        1 MOL1        -0.1685
       5    H3      20.543710   17.505696   21.496025 H          1 MOL1         0.0832
       6    H4      20.006907   16.709612   22.963242 H          1 MOL1         0.0832
       7    C3      18.779190   18.392826   22.403364 C.3        1 MOL1        -0.1685
       8    H5      18.295856   18.392937   23.389406 H          1 MOL1         0.0832
       9    H6      18.135455   17.777584   21.760550 H          1 MOL1         0.0832
      10    C4      18.810152   19.834344   21.826951 C.3        1 MOL1        -0.1761
      11    H7      19.360971   19.848808   20.877927 H          1 MOL1         0.0832
      12    H8      17.778985   20.113530   21.575288 H          1 MOL1         0.0832
      13    C5      19.362423   20.931934   22.772639 C.3        1 MOL1         0.1218
      14    H9      19.028721   21.896962   22.364422 H          1 MOL1         0.0789
      15    C6      20.907180   21.019658   22.878327 C.3        1 MOL1        -0.1761
      16    H10     21.251853   21.787109   22.173146 H          1 MOL1         0.0832
      17    H11     21.176719   21.400046   23.872372 H          1 MOL1         0.0832
      18    C7      21.723805   19.732873   22.602269 C.3        1 MOL1        -0.1685
      19    H12     21.771847   19.546355   21.520920 H          1 MOL1         0.0832
      20    H13     22.760168   19.919468   22.915019 H          1 MOL1         0.0832
      21    O1      18.799475   20.797144   24.074884 O.3        1 MOL1        -0.5509
      22    H14     19.151214   21.535303   24.612760 H          1 MOL1         0.3779
@<TRIPOS>BOND
    1     1     2    1
    2     1     3    1
    3     1     4    1
    4     4     5    1
    5     4     6    1
    6     4     7    1
    7     7     8    1
    8     7     9    1
    9     7    10    1
   10    10    11    1
   11    10    12    1
   12    10    13    1
   13    13    14    1
   14    13    15    1
   15    15    16    1
   16    15    17    1
   17     1    18    1
   18    15    18    1
   19    18    19    1
   20    18    20    1
   21    13    21    1
   22    21    22    1
@<TRIPOS>SUBSTRUCTURE
       1 MOL1            1 RESIDUE      1      MOL     
@<SCITEGIC>MOL_PROPERTY
VConf Rank
SciTegic.value.IntegerValue
438

@<SCITEGIC>MOL_PROPERTY
Conf_Id
SciTegic.value.IntegerValue
104

@<SCITEGIC>MOL_PROPERTY
Delta U+W
SciTegic.value.DoubleValue
-1.172

@<SCITEGIC>MOL_PROPERTY
U+W
SciTegic.value.DoubleValue
5.252

@<SCITEGIC>MOL_PROPERTY
Grad RMS
SciTegic.value.DoubleValue
0.000000

@<SCITEGIC>MOL_PROPERTY
U
SciTegic.value.DoubleValue
7.482

@<SCITEGIC>MOL_PROPERTY
W
SciTegic.value.DoubleValue
-2.230

@<SCITEGIC>MOL_PROPERTY
W(PB)
SciTegic.value.DoubleValue
-4.220

@<SCITEGIC>MOL_PROPERTY
W(SA)
SciTegic.value.DoubleValue
1.990

@<SCITEGIC>MOL_PROPERTY
Valence
SciTegic.value.DoubleValue
12.309

@<SCITEGIC>MOL_PROPERTY
Coulomb
SciTegic.value.DoubleValue
-7.084

@<SCITEGIC>MOL_PROPERTY
VdW
SciTegic.value.DoubleValue
2.258

@<SCITEGIC>MOL_PROPERTY
VdW6
SciTegic.value.DoubleValue
-9.770

@<SCITEGIC>MOL_PROPERTY
VdW12
SciTegic.value.DoubleValue
12.028

@<SCITEGIC>MOL_PROPERTY
Bond
SciTegic.value.DoubleValue
0.284

@<SCITEGIC>MOL_PROPERTY
Angle
SciTegic.value.DoubleValue
3.491

@<SCITEGIC>MOL_PROPERTY
Pdih
SciTegic.value.DoubleValue
8.535

@<SCITEGIC>MOL_PROPERTY
Idih
SciTegic.value.DoubleValue
0.000

@<SCITEGIC>MOL_PROPERTY
Tether
SciTegic.value.DoubleValue
0.000

@<TRIPOS>MOLECULE
guest-5_confgen4.mol2 : confsearch ligand conformer 439
          22          22           1
SMALL
USER_CHARGES
 
@<TRIPOS>ATOM
       1    C1      19.592401   18.040072   22.370966 C.3        1 MOL1        -0.1685
       2    H1      18.573724   18.211075   22.744516 H          1 MOL1         0.0832
       3    H2      19.633699   16.981579   22.079716 H          1 MOL1         0.0832
       4    C2      20.635528   18.263619   23.489625 C.3        1 MOL1        -0.1685
       5    H3      20.661198   17.369969   24.128358 H          1 MOL1         0.0832
       6    H4      21.637749   18.323970   23.045501 H          1 MOL1         0.0832
       7    C3      20.387313   19.490068   24.403894 C.3        1 MOL1        -0.1685
       8    H5      21.350199   19.810126   24.825471 H          1 MOL1         0.0832
       9    H6      19.786202   19.165881   25.264416 H          1 MOL1         0.0832
      10    C4      19.675203   20.716510   23.771485 C.3        1 MOL1        -0.1761
      11    H7      18.596502   20.519165   23.722355 H          1 MOL1         0.0832
      12    H8      19.781531   21.563241   24.461950 H          1 MOL1         0.0832
      13    C5      20.160838   21.170750   22.375847 C.3        1 MOL1         0.1218
      14    H9      19.866544   22.223063   22.253746 H          1 MOL1         0.0789
      15    C6      19.495831   20.384335   21.223638 C.3        1 MOL1        -0.1761
      16    H10     18.405988   20.473928   21.319961 H          1 MOL1         0.0832
      17    H11     19.750721   20.881273   20.278477 H          1 MOL1         0.0832
      18    C7      19.867564   18.885519   21.104663 C.3        1 MOL1        -0.1685
      19    H12     19.288440   18.460382   20.273649 H          1 MOL1         0.0832
      20    H13     20.921334   18.785295   20.811401 H          1 MOL1         0.0832
      21    O1      21.573665   21.073102   22.283355 O.3        1 MOL1        -0.5509
      22    H14     21.761535   20.134601   22.483870 H          1 MOL1         0.3779
@<TRIPOS>BOND
    1     1     2    1
    2     1     3    1
    3     1     4    1
    4     4     5    1
    5     4     6    1
    6     4     7    1
    7     7     8    1
    8     7     9    1
    9     7    10    1
   10    10    11    1
   11    10    12    1
   12    10    13    1
   13    13    14    1
   14    13    15    1
   15    15    16    1
   16    15    17    1
   17     1    18    1
   18    15    18    1
   19    18    19    1
   20    18    20    1
   21    13    21    1
   22    21    22    1
@<TRIPOS>SUBSTRUCTURE
       1 MOL1            1 RESIDUE      1      MOL     
@<SCITEGIC>MOL_PROPERTY
VConf Rank
SciTegic.value.IntegerValue
439

@<SCITEGIC>MOL_PROPERTY
Conf_Id
SciTegic.value.IntegerValue
99

@<SCITEGIC>MOL_PROPERTY
Delta U+W
SciTegic.value.DoubleValue
-3.852

@<SCITEGIC>MOL_PROPERTY
U+W
SciTegic.value.DoubleValue
2.572

@<SCITEGIC>MOL_PROPERTY
Grad RMS
SciTegic.value.DoubleValue
0.000000

@<SCITEGIC>MOL_PROPERTY
U
SciTegic.value.DoubleValue
3.922

@<SCITEGIC>MOL_PROPERTY
W
SciTegic.value.DoubleValue
-1.350

@<SCITEGIC>MOL_PROPERTY
W(PB)
SciTegic.value.DoubleValue
-3.345

@<SCITEGIC>MOL_PROPERTY
W(SA)
SciTegic.value.DoubleValue
1.995

@<SCITEGIC>MOL_PROPERTY
Valence
SciTegic.value.DoubleValue
12.571

@<SCITEGIC>MOL_PROPERTY
Coulomb
SciTegic.value.DoubleValue
-10.581

@<SCITEGIC>MOL_PROPERTY
VdW
SciTegic.value.DoubleValue
1.932

@<SCITEGIC>MOL_PROPERTY
VdW6
SciTegic.value.DoubleValue
-10.483

@<SCITEGIC>MOL_PROPERTY
VdW12
SciTegic.value.DoubleValue
12.415

@<SCITEGIC>MOL_PROPERTY
Bond
SciTegic.value.DoubleValue
0.268

@<SCITEGIC>MOL_PROPERTY
Angle
SciTegic.value.DoubleValue
3.728

@<SCITEGIC>MOL_PROPERTY
Pdih
SciTegic.value.DoubleValue
8.575

@<SCITEGIC>MOL_PROPERTY
Idih
SciTegic.value.DoubleValue
0.000

@<SCITEGIC>MOL_PROPERTY
Tether
SciTegic.value.DoubleValue
0.000

@<TRIPOS>MOLECULE
guest-5_confgen4.mol2 : confsearch ligand conformer 440
          22          22           1
SMALL
USER_CHARGES
 
@<TRIPOS>ATOM
       1    C1      21.577714   20.045631   22.115158 C.3        1 MOL1        -0.1685
       2    H1      22.289388   20.800638   21.753531 H          1 MOL1         0.0832
       3    H2      22.145073   19.105433   22.128813 H          1 MOL1         0.0832
       4    C2      20.413669   19.954826   21.085301 C.3        1 MOL1        -0.1685
       5    H3      20.621593   20.670412   20.277839 H          1 MOL1         0.0832
       6    H4      20.415082   18.970438   20.598441 H          1 MOL1         0.0832
       7    C3      18.996452   20.260485   21.633769 C.3        1 MOL1        -0.1685
       8    H5      18.308197   20.353342   20.782647 H          1 MOL1         0.0832
       9    H6      18.987418   21.251220   22.104866 H          1 MOL1         0.0832
      10    C4      18.403183   19.209000   22.612156 C.3        1 MOL1        -0.1761
      11    H7      17.626044   19.699273   23.212513 H          1 MOL1         0.0832
      12    H8      17.876685   18.445889   22.023550 H          1 MOL1         0.0832
      13    C5      19.371373   18.472824   23.570701 C.3        1 MOL1         0.1218
      14    H9      18.750763   17.957295   24.317593 H          1 MOL1         0.0789
      15    C6      20.369903   19.362031   24.351977 C.3        1 MOL1        -0.1761
      16    H10     19.825274   19.870215   25.158121 H          1 MOL1         0.0832
      17    H11     21.080912   18.695223   24.857775 H          1 MOL1         0.0832
      18    C7      21.175829   20.430292   23.561975 C.3        1 MOL1        -0.1685
      19    H12     20.624400   21.378670   23.553424 H          1 MOL1         0.0832
      20    H13     22.090877   20.648225   24.129353 H          1 MOL1         0.0832
      21    O1      20.081814   17.474356   22.855454 O.3        1 MOL1        -0.5509
      22    H14     20.614230   17.980184   22.209230 H          1 MOL1         0.3779
@<TRIPOS>BOND
    1     1     2    1
    2     1     3    1
    3     1     4    1
    4     4     5    1
    5     4     6    1
    6     4     7    1
    7     7     8    1
    8     7     9    1
    9     7    10    1
   10    10    11    1
   11    10    12    1
   12    10    13    1
   13    13    14    1
   14    13    15    1
   15    15    16    1
   16    15    17    1
   17     1    18    1
   18    15    18    1
   19    18    19    1
   20    18    20    1
   21    13    21    1
   22    21    22    1
@<TRIPOS>SUBSTRUCTURE
       1 MOL1            1 RESIDUE      1      MOL     
@<SCITEGIC>MOL_PROPERTY
VConf Rank
SciTegic.value.IntegerValue
440

@<SCITEGIC>MOL_PROPERTY
Conf_Id
SciTegic.value.IntegerValue
98

@<SCITEGIC>MOL_PROPERTY
Delta U+W
SciTegic.value.DoubleValue
0.930

@<SCITEGIC>MOL_PROPERTY
U+W
SciTegic.value.DoubleValue
7.353

@<SCITEGIC>MOL_PROPERTY
Grad RMS
SciTegic.value.DoubleValue
0.000000

@<SCITEGIC>MOL_PROPERTY
U
SciTegic.value.DoubleValue
8.455

@<SCITEGIC>MOL_PROPERTY
W
SciTegic.value.DoubleValue
-1.102

@<SCITEGIC>MOL_PROPERTY
W(PB)
SciTegic.value.DoubleValue
-3.101

@<SCITEGIC>MOL_PROPERTY
W(SA)
SciTegic.value.DoubleValue
2.000

@<SCITEGIC>MOL_PROPERTY
Valence
SciTegic.value.DoubleValue
15.601

@<SCITEGIC>MOL_PROPERTY
Coulomb
SciTegic.value.DoubleValue
-10.573

@<SCITEGIC>MOL_PROPERTY
VdW
SciTegic.value.DoubleValue
3.427

@<SCITEGIC>MOL_PROPERTY
VdW6
SciTegic.value.DoubleValue
-11.360

@<SCITEGIC>MOL_PROPERTY
VdW12
SciTegic.value.DoubleValue
14.787

@<SCITEGIC>MOL_PROPERTY
Bond
SciTegic.value.DoubleValue
0.471

@<SCITEGIC>MOL_PROPERTY
Angle
SciTegic.value.DoubleValue
5.445

@<SCITEGIC>MOL_PROPERTY
Pdih
SciTegic.value.DoubleValue
9.685

@<SCITEGIC>MOL_PROPERTY
Idih
SciTegic.value.DoubleValue
0.000

@<SCITEGIC>MOL_PROPERTY
Tether
SciTegic.value.DoubleValue
0.000

@<TRIPOS>MOLECULE
guest-5_confgen4.mol2 : confsearch ligand conformer 441
          22          22           1
SMALL
USER_CHARGES
 
@<TRIPOS>ATOM
       1    C1      20.286769   20.969768   23.560080 C.3        1 MOL1        -0.1685
       2    H1      19.232575   20.916991   23.861193 H          1 MOL1         0.0832
       3    H2      20.693838   21.836826   24.097869 H          1 MOL1         0.0832
       4    C2      20.383702   21.243583   22.037651 C.3        1 MOL1        -0.1685
       5    H3      19.867586   22.192797   21.838925 H          1 MOL1         0.0832
       6    H4      21.433186   21.411967   21.760425 H          1 MOL1         0.0832
       7    C3      19.776942   20.158898   21.104943 C.3        1 MOL1        -0.1685
       8    H5      20.577863   19.554104   20.660235 H          1 MOL1         0.0832
       9    H6      19.300342   20.665801   20.254922 H          1 MOL1         0.0832
      10    C4      18.734546   19.224771   21.774665 C.3        1 MOL1        -0.1761
      11    H7      17.970901   19.835643   22.271967 H          1 MOL1         0.0832
      12    H8      18.194221   18.687609   20.983531 H          1 MOL1         0.0832
      13    C5      19.301972   18.189578   22.789690 C.3        1 MOL1         0.1218
      14    H9      18.665192   18.209735   23.685889 H          1 MOL1         0.0789
      15    C6      20.769271   18.411838   23.234539 C.3        1 MOL1        -0.1761
      16    H10     21.088337   17.558240   23.846605 H          1 MOL1         0.0832
      17    H11     21.427354   18.395583   22.357469 H          1 MOL1         0.0832
      18    C7      21.027671   19.703390   24.049971 C.3        1 MOL1        -0.1685
      19    H12     20.744874   19.525550   25.096495 H          1 MOL1         0.0832
      20    H13     22.108545   19.899093   24.059033 H          1 MOL1         0.0832
      21    O1      19.225670   16.895137   22.203364 O.3        1 MOL1        -0.5509
      22    H14     19.533894   16.258899   22.881876 H          1 MOL1         0.3779
@<TRIPOS>BOND
    1     1     2    1
    2     1     3    1
    3     1     4    1
    4     4     5    1
    5     4     6    1
    6     4     7    1
    7     7     8    1
    8     7     9    1
    9     7    10    1
   10    10    11    1
   11    10    12    1
   12    10    13    1
   13    13    14    1
   14    13    15    1
   15    15    16    1
   16    15    17    1
   17     1    18    1
   18    15    18    1
   19    18    19    1
   20    18    20    1
   21    13    21    1
   22    21    22    1
@<TRIPOS>SUBSTRUCTURE
       1 MOL1            1 RESIDUE      1      MOL     
@<SCITEGIC>MOL_PROPERTY
VConf Rank
SciTegic.value.IntegerValue
441

@<SCITEGIC>MOL_PROPERTY
Conf_Id
SciTegic.value.IntegerValue
141

@<SCITEGIC>MOL_PROPERTY
Delta U+W
SciTegic.value.DoubleValue
0.000

@<SCITEGIC>MOL_PROPERTY
U+W
SciTegic.value.DoubleValue
6.423

@<SCITEGIC>MOL_PROPERTY
Grad RMS
SciTegic.value.DoubleValue
0.000000

@<SCITEGIC>MOL_PROPERTY
U
SciTegic.value.DoubleValue
8.781

@<SCITEGIC>MOL_PROPERTY
W
SciTegic.value.DoubleValue
-2.358

@<SCITEGIC>MOL_PROPERTY
W(PB)
SciTegic.value.DoubleValue
-4.373

@<SCITEGIC>MOL_PROPERTY
W(SA)
SciTegic.value.DoubleValue
2.015

@<SCITEGIC>MOL_PROPERTY
Valence
SciTegic.value.DoubleValue
13.328

@<SCITEGIC>MOL_PROPERTY
Coulomb
SciTegic.value.DoubleValue
-8.387

@<SCITEGIC>MOL_PROPERTY
VdW
SciTegic.value.DoubleValue
3.840

@<SCITEGIC>MOL_PROPERTY
VdW6
SciTegic.value.DoubleValue
-9.744

@<SCITEGIC>MOL_PROPERTY
VdW12
SciTegic.value.DoubleValue
13.584

@<SCITEGIC>MOL_PROPERTY
Bond
SciTegic.value.DoubleValue
0.436

@<SCITEGIC>MOL_PROPERTY
Angle
SciTegic.value.DoubleValue
3.478

@<SCITEGIC>MOL_PROPERTY
Pdih
SciTegic.value.DoubleValue
9.415

@<SCITEGIC>MOL_PROPERTY
Idih
SciTegic.value.DoubleValue
0.000

@<SCITEGIC>MOL_PROPERTY
Tether
SciTegic.value.DoubleValue
0.000

@<TRIPOS>MOLECULE
guest-5_confgen4.mol2 : confsearch ligand conformer 442
          22          22           1
SMALL
USER_CHARGES
 
@<TRIPOS>ATOM
       1    C1      20.493212   20.350051   21.157631 C.3        1 MOL1        -0.1685
       2    H1      19.944299   21.256902   21.445596 H          1 MOL1         0.0832
       3    H2      20.985184   20.583039   20.203385 H          1 MOL1         0.0832
       4    C2      19.522186   19.170534   20.909633 C.3        1 MOL1        -0.1685
       5    H3      18.936482   19.383752   20.005009 H          1 MOL1         0.0832
       6    H4      20.100424   18.264121   20.683944 H          1 MOL1         0.0832
       7    C3      18.536604   18.874152   22.063373 C.3        1 MOL1        -0.1685
       8    H5      17.954394   17.981864   21.795640 H          1 MOL1         0.0832
       9    H6      17.809419   19.693925   22.141699 H          1 MOL1         0.0832
      10    C4      19.197315   18.637356   23.443434 C.3        1 MOL1        -0.1761
      11    H7      18.432904   18.216025   24.109498 H          1 MOL1         0.0832
      12    H8      19.988611   17.880173   23.369126 H          1 MOL1         0.0832
      13    C5      19.748947   19.936891   24.071556 C.3        1 MOL1         0.1218
      14    H9      19.101173   20.770080   23.763288 H          1 MOL1         0.0789
      15    C6      21.201974   20.277824   23.669345 C.3        1 MOL1        -0.1761
      16    H10     21.367958   21.339009   23.895588 H          1 MOL1         0.0832
      17    H11     21.897060   19.721042   24.311964 H          1 MOL1         0.0832
      18    C7      21.592708   20.016938   22.193096 C.3        1 MOL1        -0.1685
      19    H12     22.487169   20.613748   21.968196 H          1 MOL1         0.0832
      20    H13     21.900901   18.969275   22.074231 H          1 MOL1         0.0832
      21    O1      19.700103   19.817958   25.488132 O.3        1 MOL1        -0.5509
      22    H14     18.760030   19.677853   25.727406 H          1 MOL1         0.3779
@<TRIPOS>BOND
    1     1     2    1
    2     1     3    1
    3     1     4    1
    4     4     5    1
    5     4     6    1
    6     4     7    1
    7     7     8    1
    8     7     9    1
    9     7    10    1
   10    10    11    1
   11    10    12    1
   12    10    13    1
   13    13    14    1
   14    13    15    1
   15    15    16    1
   16    15    17    1
   17     1    18    1
   18    15    18    1
   19    18    19    1
   20    18    20    1
   21    13    21    1
   22    21    22    1
@<TRIPOS>SUBSTRUCTURE
       1 MOL1            1 RESIDUE      1      MOL     
@<SCITEGIC>MOL_PROPERTY
VConf Rank
SciTegic.value.IntegerValue
442

@<SCITEGIC>MOL_PROPERTY
Conf_Id
SciTegic.value.IntegerValue
144

@<SCITEGIC>MOL_PROPERTY
Delta U+W
SciTegic.value.DoubleValue
-3.291

@<SCITEGIC>MOL_PROPERTY
U+W
SciTegic.value.DoubleValue
3.132

@<SCITEGIC>MOL_PROPERTY
Grad RMS
SciTegic.value.DoubleValue
0.000000

@<SCITEGIC>MOL_PROPERTY
U
SciTegic.value.DoubleValue
5.411

@<SCITEGIC>MOL_PROPERTY
W
SciTegic.value.DoubleValue
-2.279

@<SCITEGIC>MOL_PROPERTY
W(PB)
SciTegic.value.DoubleValue
-4.300

@<SCITEGIC>MOL_PROPERTY
W(SA)
SciTegic.value.DoubleValue
2.021

@<SCITEGIC>MOL_PROPERTY
Valence
SciTegic.value.DoubleValue
11.909

@<SCITEGIC>MOL_PROPERTY
Coulomb
SciTegic.value.DoubleValue
-8.733

@<SCITEGIC>MOL_PROPERTY
VdW
SciTegic.value.DoubleValue
2.236

@<SCITEGIC>MOL_PROPERTY
VdW6
SciTegic.value.DoubleValue
-8.936

@<SCITEGIC>MOL_PROPERTY
VdW12
SciTegic.value.DoubleValue
11.172

@<SCITEGIC>MOL_PROPERTY
Bond
SciTegic.value.DoubleValue
0.223

@<SCITEGIC>MOL_PROPERTY
Angle
SciTegic.value.DoubleValue
2.457

@<SCITEGIC>MOL_PROPERTY
Pdih
SciTegic.value.DoubleValue
9.228

@<SCITEGIC>MOL_PROPERTY
Idih
SciTegic.value.DoubleValue
0.000

@<SCITEGIC>MOL_PROPERTY
Tether
SciTegic.value.DoubleValue
0.000

@<TRIPOS>MOLECULE
guest-5_confgen4.mol2 : confsearch ligand conformer 443
          22          22           1
SMALL
USER_CHARGES
 
@<TRIPOS>ATOM
       1    C1      18.989407   18.990973   23.988984 C.3        1 MOL1        -0.1685
       2    H1      18.584026   18.414332   24.831624 H          1 MOL1         0.0832
       3    H2      18.347534   19.876942   23.890290 H          1 MOL1         0.0832
       4    C2      18.908285   18.107762   22.721928 C.3        1 MOL1        -0.1685
       5    H3      19.771221   17.428549   22.693886 H          1 MOL1         0.0832
       6    H4      18.026147   17.457346   22.798016 H          1 MOL1         0.0832
       7    C3      18.814462   18.883689   21.385868 C.3        1 MOL1        -0.1685
       8    H5      17.766503   19.159854   21.205782 H          1 MOL1         0.0832
       9    H6      19.086079   18.197678   20.571846 H          1 MOL1         0.0832
      10    C4      19.676757   20.165117   21.273932 C.3        1 MOL1        -0.1761
      11    H7      19.774071   20.412372   20.208162 H          1 MOL1         0.0832
      12    H8      19.134097   21.005368   21.726031 H          1 MOL1         0.0832
      13    C5      21.081326   20.062781   21.909782 C.3        1 MOL1         0.1218
      14    H9      21.467550   19.040906   21.787013 H          1 MOL1         0.0789
      15    C6      21.082294   20.440962   23.408433 C.3        1 MOL1        -0.1761
      16    H10     22.120567   20.594782   23.731637 H          1 MOL1         0.0832
      17    H11     20.576637   21.405987   23.543056 H          1 MOL1         0.0832
      18    C7      20.438854   19.395537   24.350127 C.3        1 MOL1        -0.1685
      19    H12     21.070825   18.497508   24.383021 H          1 MOL1         0.0832
      20    H13     20.444872   19.803033   25.370274 H          1 MOL1         0.0832
      21    O1      21.945532   20.964746   21.231682 O.3        1 MOL1        -0.5509
      22    H14     21.569028   21.859401   21.362055 H          1 MOL1         0.3779
@<TRIPOS>BOND
    1     1     2    1
    2     1     3    1
    3     1     4    1
    4     4     5    1
    5     4     6    1
    6     4     7    1
    7     7     8    1
    8     7     9    1
    9     7    10    1
   10    10    11    1
   11    10    12    1
   12    10    13    1
   13    13    14    1
   14    13    15    1
   15    15    16    1
   16    15    17    1
   17     1    18    1
   18    15    18    1
   19    18    19    1
   20    18    20    1
   21    13    21    1
   22    21    22    1
@<TRIPOS>SUBSTRUCTURE
       1 MOL1            1 RESIDUE      1      MOL     
@<SCITEGIC>MOL_PROPERTY
VConf Rank
SciTegic.value.IntegerValue
443

@<SCITEGIC>MOL_PROPERTY
Conf_Id
SciTegic.value.IntegerValue
76

@<SCITEGIC>MOL_PROPERTY
Delta U+W
SciTegic.value.DoubleValue
-3.175

@<SCITEGIC>MOL_PROPERTY
U+W
SciTegic.value.DoubleValue
3.248

@<SCITEGIC>MOL_PROPERTY
Grad RMS
SciTegic.value.DoubleValue
0.000000

@<SCITEGIC>MOL_PROPERTY
U
SciTegic.value.DoubleValue
5.336

@<SCITEGIC>MOL_PROPERTY
W
SciTegic.value.DoubleValue
-2.088

@<SCITEGIC>MOL_PROPERTY
W(PB)
SciTegic.value.DoubleValue
-4.098

@<SCITEGIC>MOL_PROPERTY
W(SA)
SciTegic.value.DoubleValue
2.010

@<SCITEGIC>MOL_PROPERTY
Valence
SciTegic.value.DoubleValue
12.390

@<SCITEGIC>MOL_PROPERTY
Coulomb
SciTegic.value.DoubleValue
-9.270

@<SCITEGIC>MOL_PROPERTY
VdW
SciTegic.value.DoubleValue
2.216

@<SCITEGIC>MOL_PROPERTY
VdW6
SciTegic.value.DoubleValue
-8.967

@<SCITEGIC>MOL_PROPERTY
VdW12
SciTegic.value.DoubleValue
11.183

@<SCITEGIC>MOL_PROPERTY
Bond
SciTegic.value.DoubleValue
0.218

@<SCITEGIC>MOL_PROPERTY
Angle
SciTegic.value.DoubleValue
2.426

@<SCITEGIC>MOL_PROPERTY
Pdih
SciTegic.value.DoubleValue
9.745

@<SCITEGIC>MOL_PROPERTY
Idih
SciTegic.value.DoubleValue
0.000

@<SCITEGIC>MOL_PROPERTY
Tether
SciTegic.value.DoubleValue
0.000

@<TRIPOS>MOLECULE
guest-5_confgen4.mol2 : confsearch ligand conformer 444
          22          22           1
SMALL
USER_CHARGES
 
@<TRIPOS>ATOM
       1    C1      21.270918   19.371524   24.115106 C.3        1 MOL1        -0.1685
       2    H1      21.072343   19.557211   25.179469 H          1 MOL1         0.0832
       3    H2      22.294402   18.975252   24.067528 H          1 MOL1         0.0832
       4    C2      21.222898   20.727037   23.370155 C.3        1 MOL1        -0.1685
       5    H3      20.442332   21.360868   23.812256 H          1 MOL1         0.0832
       6    H4      22.169243   21.251895   23.559201 H          1 MOL1         0.0832
       7    C3      21.000550   20.626877   21.843043 C.3        1 MOL1        -0.1685
       8    H5      21.530278   19.760423   21.424137 H          1 MOL1         0.0832
       9    H6      21.448330   21.513501   21.374340 H          1 MOL1         0.0832
      10    C4      19.500137   20.595488   21.455929 C.3        1 MOL1        -0.1761
      11    H7      18.983506   21.430462   21.946259 H          1 MOL1         0.0832
      12    H8      19.412384   20.786621   20.378348 H          1 MOL1         0.0832
      13    C5      18.740723   19.286586   21.770829 C.3        1 MOL1         0.1218
      14    H9      17.672902   19.492697   21.608424 H          1 MOL1         0.0789
      15    C6      18.889549   18.771570   23.224479 C.3        1 MOL1        -0.1761
      16    H10     18.562702   19.547064   23.929220 H          1 MOL1         0.0832
      17    H11     18.186525   17.938672   23.354196 H          1 MOL1         0.0832
      18    C7      20.307936   18.273011   23.605048 C.3        1 MOL1        -0.1685
      19    H12     20.216034   17.513108   24.392781 H          1 MOL1         0.0832
      20    H13     20.766162   17.754140   22.752849 H          1 MOL1         0.0832
      21    O1      19.142587   18.277149   20.850196 O.3        1 MOL1        -0.5509
      22    H14     18.679778   17.456655   21.116434 H          1 MOL1         0.3779
@<TRIPOS>BOND
    1     1     2    1
    2     1     3    1
    3     1     4    1
    4     4     5    1
    5     4     6    1
    6     4     7    1
    7     7     8    1
    8     7     9    1
    9     7    10    1
   10    10    11    1
   11    10    12    1
   12    10    13    1
   13    13    14    1
   14    13    15    1
   15    15    16    1
   16    15    17    1
   17     1    18    1
   18    15    18    1
   19    18    19    1
   20    18    20    1
   21    13    21    1
   22    21    22    1
@<TRIPOS>SUBSTRUCTURE
       1 MOL1            1 RESIDUE      1      MOL     
@<SCITEGIC>MOL_PROPERTY
VConf Rank
SciTegic.value.IntegerValue
444

@<SCITEGIC>MOL_PROPERTY
Conf_Id
SciTegic.value.IntegerValue
95

@<SCITEGIC>MOL_PROPERTY
Delta U+W
SciTegic.value.DoubleValue
-2.289

@<SCITEGIC>MOL_PROPERTY
U+W
SciTegic.value.DoubleValue
4.134

@<SCITEGIC>MOL_PROPERTY
Grad RMS
SciTegic.value.DoubleValue
0.000000

@<SCITEGIC>MOL_PROPERTY
U
SciTegic.value.DoubleValue
6.373

@<SCITEGIC>MOL_PROPERTY
W
SciTegic.value.DoubleValue
-2.240

@<SCITEGIC>MOL_PROPERTY
W(PB)
SciTegic.value.DoubleValue
-4.254

@<SCITEGIC>MOL_PROPERTY
W(SA)
SciTegic.value.DoubleValue
2.015

@<SCITEGIC>MOL_PROPERTY
Valence
SciTegic.value.DoubleValue
12.093

@<SCITEGIC>MOL_PROPERTY
Coulomb
SciTegic.value.DoubleValue
-8.058

@<SCITEGIC>MOL_PROPERTY
VdW
SciTegic.value.DoubleValue
2.339

@<SCITEGIC>MOL_PROPERTY
VdW6
SciTegic.value.DoubleValue
-9.683

@<SCITEGIC>MOL_PROPERTY
VdW12
SciTegic.value.DoubleValue
12.022

@<SCITEGIC>MOL_PROPERTY
Bond
SciTegic.value.DoubleValue
0.268

@<SCITEGIC>MOL_PROPERTY
Angle
SciTegic.value.DoubleValue
3.005

@<SCITEGIC>MOL_PROPERTY
Pdih
SciTegic.value.DoubleValue
8.820

@<SCITEGIC>MOL_PROPERTY
Idih
SciTegic.value.DoubleValue
0.000

@<SCITEGIC>MOL_PROPERTY
Tether
SciTegic.value.DoubleValue
0.000

@<TRIPOS>MOLECULE
guest-5_confgen4.mol2 : confsearch ligand conformer 445
          22          22           1
SMALL
USER_CHARGES
 
@<TRIPOS>ATOM
       1    C1      21.312645   19.696909   21.278153 C.3        1 MOL1        -0.1685
       2    H1      21.865462   18.862793   20.824944 H          1 MOL1         0.0832
       3    H2      21.606976   20.591580   20.712713 H          1 MOL1         0.0832
       4    C2      21.785979   19.851999   22.743155 C.3        1 MOL1        -0.1685
       5    H3      21.990539   18.860185   23.168525 H          1 MOL1         0.0832
       6    H4      22.753440   20.372318   22.733840 H          1 MOL1         0.0832
       7    C3      20.812598   20.618382   23.668737 C.3        1 MOL1        -0.1685
       8    H5      20.331646   21.448086   23.132923 H          1 MOL1         0.0832
       9    H6      21.400136   21.076431   24.475841 H          1 MOL1         0.0832
      10    C4      19.754997   19.692668   24.321303 C.3        1 MOL1        -0.1761
      11    H7      20.262463   18.830540   24.773090 H          1 MOL1         0.0832
      12    H8      19.289164   20.227829   25.158909 H          1 MOL1         0.0832
      13    C5      18.634500   19.175006   23.390580 C.3        1 MOL1         0.1218
      14    H9      18.083330   18.407791   23.953336 H          1 MOL1         0.0789
      15    C6      19.123246   18.512182   22.078282 C.3        1 MOL1        -0.1761
      16    H10     19.795526   17.675884   22.308792 H          1 MOL1         0.0832
      17    H11     18.245117   18.066175   21.593726 H          1 MOL1         0.0832
      18    C7      19.796399   19.473824   21.064600 C.3        1 MOL1        -0.1685
      19    H12     19.653634   19.074418   20.051531 H          1 MOL1         0.0832
      20    H13     19.279651   20.442620   21.069491 H          1 MOL1         0.0832
      21    O1      17.735846   20.240077   23.095725 O.3        1 MOL1        -0.5509
      22    H14     17.473041   20.632118   23.953293 H          1 MOL1         0.3779
@<TRIPOS>BOND
    1     1     2    1
    2     1     3    1
    3     1     4    1
    4     4     5    1
    5     4     6    1
    6     4     7    1
    7     7     8    1
    8     7     9    1
    9     7    10    1
   10    10    11    1
   11    10    12    1
   12    10    13    1
   13    13    14    1
   14    13    15    1
   15    15    16    1
   16    15    17    1
   17     1    18    1
   18    15    18    1
   19    18    19    1
   20    18    20    1
   21    13    21    1
   22    21    22    1
@<TRIPOS>SUBSTRUCTURE
       1 MOL1            1 RESIDUE      1      MOL     
@<SCITEGIC>MOL_PROPERTY
VConf Rank
SciTegic.value.IntegerValue
445

@<SCITEGIC>MOL_PROPERTY
Conf_Id
SciTegic.value.IntegerValue
41

@<SCITEGIC>MOL_PROPERTY
Delta U+W
SciTegic.value.DoubleValue
-2.114

@<SCITEGIC>MOL_PROPERTY
U+W
SciTegic.value.DoubleValue
4.310

@<SCITEGIC>MOL_PROPERTY
Grad RMS
SciTegic.value.DoubleValue
0.000000

@<SCITEGIC>MOL_PROPERTY
U
SciTegic.value.DoubleValue
6.598

@<SCITEGIC>MOL_PROPERTY
W
SciTegic.value.DoubleValue
-2.289

@<SCITEGIC>MOL_PROPERTY
W(PB)
SciTegic.value.DoubleValue
-4.294

@<SCITEGIC>MOL_PROPERTY
W(SA)
SciTegic.value.DoubleValue
2.005

@<SCITEGIC>MOL_PROPERTY
Valence
SciTegic.value.DoubleValue
12.082

@<SCITEGIC>MOL_PROPERTY
Coulomb
SciTegic.value.DoubleValue
-7.801

@<SCITEGIC>MOL_PROPERTY
VdW
SciTegic.value.DoubleValue
2.317

@<SCITEGIC>MOL_PROPERTY
VdW6
SciTegic.value.DoubleValue
-9.658

@<SCITEGIC>MOL_PROPERTY
VdW12
SciTegic.value.DoubleValue
11.975

@<SCITEGIC>MOL_PROPERTY
Bond
SciTegic.value.DoubleValue
0.267

@<SCITEGIC>MOL_PROPERTY
Angle
SciTegic.value.DoubleValue
3.051

@<SCITEGIC>MOL_PROPERTY
Pdih
SciTegic.value.DoubleValue
8.764

@<SCITEGIC>MOL_PROPERTY
Idih
SciTegic.value.DoubleValue
0.000

@<SCITEGIC>MOL_PROPERTY
Tether
SciTegic.value.DoubleValue
0.000

@<TRIPOS>MOLECULE
guest-5_confgen4.mol2 : confsearch ligand conformer 446
          22          22           1
SMALL
USER_CHARGES
 
@<TRIPOS>ATOM
       1    C1      20.720823   20.894800   21.985692 C.3        1 MOL1        -0.1685
       2    H1      21.294967   21.614885   21.387038 H          1 MOL1         0.0832
       3    H2      19.795856   21.408592   22.281713 H          1 MOL1         0.0832
       4    C2      21.565271   20.531023   23.227450 C.3        1 MOL1        -0.1685
       5    H3      22.452984   19.964468   22.915101 H          1 MOL1         0.0832
       6    H4      21.943321   21.458475   23.678527 H          1 MOL1         0.0832
       7    C3      20.805041   19.739708   24.314230 C.3        1 MOL1        -0.1685
       8    H5      20.047945   20.387612   24.775658 H          1 MOL1         0.0832
       9    H6      21.515117   19.499626   25.116899 H          1 MOL1         0.0832
      10    C4      20.149364   18.417772   23.830744 C.3        1 MOL1        -0.1761
      11    H7      20.887789   17.802868   23.300763 H          1 MOL1         0.0832
      12    H8      19.868365   17.841354   24.721455 H          1 MOL1         0.0832
      13    C5      18.872677   18.570455   22.964262 C.3        1 MOL1         0.1218
      14    H9      18.364472   17.595344   22.977040 H          1 MOL1         0.0789
      15    C6      19.105900   18.915403   21.470356 C.3        1 MOL1        -0.1761
      16    H10     19.094056   17.977330   20.900320 H          1 MOL1         0.0832
      17    H11     18.247622   19.489764   21.097610 H          1 MOL1         0.0832
      18    C7      20.406177   19.670230   21.098312 C.3        1 MOL1        -0.1685
      19    H12     21.256771   18.975390   21.108439 H          1 MOL1         0.0832
      20    H13     20.312962   20.006088   20.056588 H          1 MOL1         0.0832
      21    O1      17.987855   19.525119   23.544457 O.3        1 MOL1        -0.5509
      22    H14     17.188553   19.549323   22.980152 H          1 MOL1         0.3779
@<TRIPOS>BOND
    1     1     2    1
    2     1     3    1
    3     1     4    1
    4     4     5    1
    5     4     6    1
    6     4     7    1
    7     7     8    1
    8     7     9    1
    9     7    10    1
   10    10    11    1
   11    10    12    1
   12    10    13    1
   13    13    14    1
   14    13    15    1
   15    15    16    1
   16    15    17    1
   17     1    18    1
   18    15    18    1
   19    18    19    1
   20    18    20    1
   21    13    21    1
   22    21    22    1
@<TRIPOS>SUBSTRUCTURE
       1 MOL1            1 RESIDUE      1      MOL     
@<SCITEGIC>MOL_PROPERTY
VConf Rank
SciTegic.value.IntegerValue
446

@<SCITEGIC>MOL_PROPERTY
Conf_Id
SciTegic.value.IntegerValue
104

@<SCITEGIC>MOL_PROPERTY
Delta U+W
SciTegic.value.DoubleValue
-1.172

@<SCITEGIC>MOL_PROPERTY
U+W
SciTegic.value.DoubleValue
5.252

@<SCITEGIC>MOL_PROPERTY
Grad RMS
SciTegic.value.DoubleValue
0.000000

@<SCITEGIC>MOL_PROPERTY
U
SciTegic.value.DoubleValue
7.482

@<SCITEGIC>MOL_PROPERTY
W
SciTegic.value.DoubleValue
-2.230

@<SCITEGIC>MOL_PROPERTY
W(PB)
SciTegic.value.DoubleValue
-4.220

@<SCITEGIC>MOL_PROPERTY
W(SA)
SciTegic.value.DoubleValue
1.990

@<SCITEGIC>MOL_PROPERTY
Valence
SciTegic.value.DoubleValue
12.309

@<SCITEGIC>MOL_PROPERTY
Coulomb
SciTegic.value.DoubleValue
-7.084

@<SCITEGIC>MOL_PROPERTY
VdW
SciTegic.value.DoubleValue
2.258

@<SCITEGIC>MOL_PROPERTY
VdW6
SciTegic.value.DoubleValue
-9.770

@<SCITEGIC>MOL_PROPERTY
VdW12
SciTegic.value.DoubleValue
12.028

@<SCITEGIC>MOL_PROPERTY
Bond
SciTegic.value.DoubleValue
0.284

@<SCITEGIC>MOL_PROPERTY
Angle
SciTegic.value.DoubleValue
3.491

@<SCITEGIC>MOL_PROPERTY
Pdih
SciTegic.value.DoubleValue
8.535

@<SCITEGIC>MOL_PROPERTY
Idih
SciTegic.value.DoubleValue
0.000

@<SCITEGIC>MOL_PROPERTY
Tether
SciTegic.value.DoubleValue
0.000

@<TRIPOS>MOLECULE
guest-5_confgen4.mol2 : confsearch ligand conformer 447
          22          22           1
SMALL
USER_CHARGES
 
@<TRIPOS>ATOM
       1    C1      18.486521   19.336576   23.062722 C.3        1 MOL1        -0.1685
       2    H1      18.136930   20.196361   22.475320 H          1 MOL1         0.0832
       3    H2      17.590691   18.906205   23.530919 H          1 MOL1         0.0832
       4    C2      19.438821   19.790325   24.192643 C.3        1 MOL1        -0.1685
       5    H3      18.835420   20.181801   25.023246 H          1 MOL1         0.0832
       6    H4      19.956191   18.914546   24.605773 H          1 MOL1         0.0832
       7    C3      20.470369   20.879757   23.804414 C.3        1 MOL1        -0.1685
       8    H5      21.333393   20.797900   24.479547 H          1 MOL1         0.0832
       9    H6      20.030419   21.864667   24.012559 H          1 MOL1         0.0832
      10    C4      20.972459   20.892944   22.335083 C.3        1 MOL1        -0.1761
      11    H7      20.213132   21.368220   21.700662 H          1 MOL1         0.0832
      12    H8      21.846848   21.554459   22.281762 H          1 MOL1         0.0832
      13    C5      21.360264   19.532796   21.710914 C.3        1 MOL1         0.1218
      14    H9      22.039089   19.740043   20.871196 H          1 MOL1         0.0789
      15    C6      20.147737   18.772397   21.127956 C.3        1 MOL1        -0.1761
      16    H10     19.643155   19.420704   20.399837 H          1 MOL1         0.0832
      17    H11     20.524920   17.917862   20.551113 H          1 MOL1         0.0832
      18    C7      19.102693   18.252912   22.146194 C.3        1 MOL1        -0.1685
      19    H12     18.290116   17.776761   21.580766 H          1 MOL1         0.0832
      20    H13     19.543716   17.454272   22.757873 H          1 MOL1         0.0832
      21    O1      22.035304   18.722654   22.660735 O.3        1 MOL1        -0.5509
      22    H14     21.405523   18.653357   23.405624 H          1 MOL1         0.3779
@<TRIPOS>BOND
    1     1     2    1
    2     1     3    1
    3     1     4    1
    4     4     5    1
    5     4     6    1
    6     4     7    1
    7     7     8    1
    8     7     9    1
    9     7    10    1
   10    10    11    1
   11    10    12    1
   12    10    13    1
   13    13    14    1
   14    13    15    1
   15    15    16    1
   16    15    17    1
   17     1    18    1
   18    15    18    1
   19    18    19    1
   20    18    20    1
   21    13    21    1
   22    21    22    1
@<TRIPOS>SUBSTRUCTURE
       1 MOL1            1 RESIDUE      1      MOL     
@<SCITEGIC>MOL_PROPERTY
VConf Rank
SciTegic.value.IntegerValue
447

@<SCITEGIC>MOL_PROPERTY
Conf_Id
SciTegic.value.IntegerValue
99

@<SCITEGIC>MOL_PROPERTY
Delta U+W
SciTegic.value.DoubleValue
-3.852

@<SCITEGIC>MOL_PROPERTY
U+W
SciTegic.value.DoubleValue
2.572

@<SCITEGIC>MOL_PROPERTY
Grad RMS
SciTegic.value.DoubleValue
0.000000

@<SCITEGIC>MOL_PROPERTY
U
SciTegic.value.DoubleValue
3.922

@<SCITEGIC>MOL_PROPERTY
W
SciTegic.value.DoubleValue
-1.350

@<SCITEGIC>MOL_PROPERTY
W(PB)
SciTegic.value.DoubleValue
-3.345

@<SCITEGIC>MOL_PROPERTY
W(SA)
SciTegic.value.DoubleValue
1.995

@<SCITEGIC>MOL_PROPERTY
Valence
SciTegic.value.DoubleValue
12.571

@<SCITEGIC>MOL_PROPERTY
Coulomb
SciTegic.value.DoubleValue
-10.581

@<SCITEGIC>MOL_PROPERTY
VdW
SciTegic.value.DoubleValue
1.932

@<SCITEGIC>MOL_PROPERTY
VdW6
SciTegic.value.DoubleValue
-10.483

@<SCITEGIC>MOL_PROPERTY
VdW12
SciTegic.value.DoubleValue
12.415

@<SCITEGIC>MOL_PROPERTY
Bond
SciTegic.value.DoubleValue
0.268

@<SCITEGIC>MOL_PROPERTY
Angle
SciTegic.value.DoubleValue
3.728

@<SCITEGIC>MOL_PROPERTY
Pdih
SciTegic.value.DoubleValue
8.575

@<SCITEGIC>MOL_PROPERTY
Idih
SciTegic.value.DoubleValue
0.000

@<SCITEGIC>MOL_PROPERTY
Tether
SciTegic.value.DoubleValue
0.000

@<TRIPOS>MOLECULE
guest-5_confgen4.mol2 : confsearch ligand conformer 448
          22          22           1
SMALL
USER_CHARGES
 
@<TRIPOS>ATOM
       1    C1      19.659706   18.302213   23.647791 C.3        1 MOL1        -0.1685
       2    H1      18.953869   17.529400   23.982225 H          1 MOL1         0.0832
       3    H2      20.564476   18.138148   24.248231 H          1 MOL1         0.0832
       4    C2      19.039762   19.691082   23.980300 C.3        1 MOL1        -0.1685
       5    H3      18.065670   19.519411   24.458802 H          1 MOL1         0.0832
       6    H4      19.643251   20.202223   24.742264 H          1 MOL1         0.0832
       7    C3      18.813327   20.639601   22.775398 C.3        1 MOL1        -0.1685
       8    H5      18.202550   21.488148   23.112511 H          1 MOL1         0.0832
       9    H6      18.195415   20.138042   22.020287 H          1 MOL1         0.0832
      10    C4      20.095017   21.211843   22.108584 C.3        1 MOL1        -0.1761
      11    H7      19.841824   21.517908   21.085374 H          1 MOL1         0.0832
      12    H8      20.372077   22.138685   22.628389 H          1 MOL1         0.0832
      13    C5      21.355119   20.313352   22.053689 C.3        1 MOL1         0.1218
      14    H9      22.060172   20.794061   21.360440 H          1 MOL1         0.0789
      15    C6      21.142692   18.865467   21.547083 C.3        1 MOL1        -0.1761
      16    H10     21.013561   18.894170   20.457477 H          1 MOL1         0.0832
      17    H11     22.078799   18.316020   21.713841 H          1 MOL1         0.0832
      18    C7      19.974217   18.039349   22.152885 C.3        1 MOL1        -0.1685
      19    H12     19.067585   18.184887   21.552549 H          1 MOL1         0.0832
      20    H13     20.217327   16.974920   22.031997 H          1 MOL1         0.0832
      21    O1      21.975688   20.285148   23.329361 O.3        1 MOL1        -0.5509
      22    H14     21.313767   19.851824   23.904708 H          1 MOL1         0.3779
@<TRIPOS>BOND
    1     1     2    1
    2     1     3    1
    3     1     4    1
    4     4     5    1
    5     4     6    1
    6     4     7    1
    7     7     8    1
    8     7     9    1
    9     7    10    1
   10    10    11    1
   11    10    12    1
   12    10    13    1
   13    13    14    1
   14    13    15    1
   15    15    16    1
   16    15    17    1
   17     1    18    1
   18    15    18    1
   19    18    19    1
   20    18    20    1
   21    13    21    1
   22    21    22    1
@<TRIPOS>SUBSTRUCTURE
       1 MOL1            1 RESIDUE      1      MOL     
@<SCITEGIC>MOL_PROPERTY
VConf Rank
SciTegic.value.IntegerValue
448

@<SCITEGIC>MOL_PROPERTY
Conf_Id
SciTegic.value.IntegerValue
98

@<SCITEGIC>MOL_PROPERTY
Delta U+W
SciTegic.value.DoubleValue
0.930

@<SCITEGIC>MOL_PROPERTY
U+W
SciTegic.value.DoubleValue
7.353

@<SCITEGIC>MOL_PROPERTY
Grad RMS
SciTegic.value.DoubleValue
0.000000

@<SCITEGIC>MOL_PROPERTY
U
SciTegic.value.DoubleValue
8.455

@<SCITEGIC>MOL_PROPERTY
W
SciTegic.value.DoubleValue
-1.102

@<SCITEGIC>MOL_PROPERTY
W(PB)
SciTegic.value.DoubleValue
-3.101

@<SCITEGIC>MOL_PROPERTY
W(SA)
SciTegic.value.DoubleValue
2.000

@<SCITEGIC>MOL_PROPERTY
Valence
SciTegic.value.DoubleValue
15.601

@<SCITEGIC>MOL_PROPERTY
Coulomb
SciTegic.value.DoubleValue
-10.573

@<SCITEGIC>MOL_PROPERTY
VdW
SciTegic.value.DoubleValue
3.427

@<SCITEGIC>MOL_PROPERTY
VdW6
SciTegic.value.DoubleValue
-11.360

@<SCITEGIC>MOL_PROPERTY
VdW12
SciTegic.value.DoubleValue
14.787

@<SCITEGIC>MOL_PROPERTY
Bond
SciTegic.value.DoubleValue
0.471

@<SCITEGIC>MOL_PROPERTY
Angle
SciTegic.value.DoubleValue
5.445

@<SCITEGIC>MOL_PROPERTY
Pdih
SciTegic.value.DoubleValue
9.685

@<SCITEGIC>MOL_PROPERTY
Idih
SciTegic.value.DoubleValue
0.000

@<SCITEGIC>MOL_PROPERTY
Tether
SciTegic.value.DoubleValue
0.000

@<TRIPOS>MOLECULE
guest-5_confgen4.mol2 : confsearch ligand conformer 449
          22          22           1
SMALL
USER_CHARGES
 
@<TRIPOS>ATOM
       1    C1      20.161860   20.773124   23.837100 C.3        1 MOL1        -0.1685
       2    H1      20.276381   21.480687   23.005824 H          1 MOL1         0.0832
       3    H2      20.172979   21.393782   24.743396 H          1 MOL1         0.0832
       4    C2      21.379026   19.814601   23.880692 C.3        1 MOL1        -0.1685
       5    H3      22.280242   20.430117   24.006491 H          1 MOL1         0.0832
       6    H4      21.320173   19.186202   24.779733 H          1 MOL1         0.0832
       7    C3      21.583266   18.907132   22.635932 C.3        1 MOL1        -0.1685
       8    H5      21.253496   17.883914   22.857950 H          1 MOL1         0.0832
       9    H6      22.662105   18.821814   22.447616 H          1 MOL1         0.0832
      10    C4      20.890208   19.404094   21.339626 C.3        1 MOL1        -0.1761
      11    H7      21.173566   20.448224   21.157621 H          1 MOL1         0.0832
      12    H8      21.307493   18.846866   20.490062 H          1 MOL1         0.0832
      13    C5      19.338384   19.282629   21.308643 C.3        1 MOL1         0.1218
      14    H9      18.931812   20.231167   20.929114 H          1 MOL1         0.0789
      15    C6      18.656330   18.972889   22.664785 C.3        1 MOL1        -0.1761
      16    H10     17.587544   18.791570   22.491935 H          1 MOL1         0.0832
      17    H11     19.044408   18.028969   23.066032 H          1 MOL1         0.0832
      18    C7      18.781840   20.081230   23.739789 C.3        1 MOL1        -0.1685
      19    H12     18.025552   20.853567   23.543988 H          1 MOL1         0.0832
      20    H13     18.525536   19.649380   24.716766 H          1 MOL1         0.0832
      21    O1      18.985901   18.240220   20.406249 O.3        1 MOL1        -0.5509
      22    H14     18.007154   18.223626   20.361994 H          1 MOL1         0.3779
@<TRIPOS>BOND
    1     1     2    1
    2     1     3    1
    3     1     4    1
    4     4     5    1
    5     4     6    1
    6     4     7    1
    7     7     8    1
    8     7     9    1
    9     7    10    1
   10    10    11    1
   11    10    12    1
   12    10    13    1
   13    13    14    1
   14    13    15    1
   15    15    16    1
   16    15    17    1
   17     1    18    1
   18    15    18    1
   19    18    19    1
   20    18    20    1
   21    13    21    1
   22    21    22    1
@<TRIPOS>SUBSTRUCTURE
       1 MOL1            1 RESIDUE      1      MOL     
@<SCITEGIC>MOL_PROPERTY
VConf Rank
SciTegic.value.IntegerValue
449

@<SCITEGIC>MOL_PROPERTY
Conf_Id
SciTegic.value.IntegerValue
141

@<SCITEGIC>MOL_PROPERTY
Delta U+W
SciTegic.value.DoubleValue
0.000

@<SCITEGIC>MOL_PROPERTY
U+W
SciTegic.value.DoubleValue
6.423

@<SCITEGIC>MOL_PROPERTY
Grad RMS
SciTegic.value.DoubleValue
0.000000

@<SCITEGIC>MOL_PROPERTY
U
SciTegic.value.DoubleValue
8.781

@<SCITEGIC>MOL_PROPERTY
W
SciTegic.value.DoubleValue
-2.358

@<SCITEGIC>MOL_PROPERTY
W(PB)
SciTegic.value.DoubleValue
-4.373

@<SCITEGIC>MOL_PROPERTY
W(SA)
SciTegic.value.DoubleValue
2.015

@<SCITEGIC>MOL_PROPERTY
Valence
SciTegic.value.DoubleValue
13.328

@<SCITEGIC>MOL_PROPERTY
Coulomb
SciTegic.value.DoubleValue
-8.387

@<SCITEGIC>MOL_PROPERTY
VdW
SciTegic.value.DoubleValue
3.840

@<SCITEGIC>MOL_PROPERTY
VdW6
SciTegic.value.DoubleValue
-9.744

@<SCITEGIC>MOL_PROPERTY
VdW12
SciTegic.value.DoubleValue
13.584

@<SCITEGIC>MOL_PROPERTY
Bond
SciTegic.value.DoubleValue
0.436

@<SCITEGIC>MOL_PROPERTY
Angle
SciTegic.value.DoubleValue
3.478

@<SCITEGIC>MOL_PROPERTY
Pdih
SciTegic.value.DoubleValue
9.415

@<SCITEGIC>MOL_PROPERTY
Idih
SciTegic.value.DoubleValue
0.000

@<SCITEGIC>MOL_PROPERTY
Tether
SciTegic.value.DoubleValue
0.000

@<TRIPOS>MOLECULE
guest-5_confgen4.mol2 : confsearch ligand conformer 450
          22          22           1
SMALL
USER_CHARGES
 
@<TRIPOS>ATOM
       1    C1      18.253068   19.662910   22.417556 C.3        1 MOL1        -0.1685
       2    H1      18.240619   20.653734   22.891605 H          1 MOL1         0.0832
       3    H2      17.219667   19.464202   22.102117 H          1 MOL1         0.0832
       4    C2      18.652272   18.567290   23.435351 C.3        1 MOL1        -0.1685
       5    H3      17.843385   18.461795   24.171169 H          1 MOL1         0.0832
       6    H4      18.716154   17.598539   22.921230 H          1 MOL1         0.0832
       7    C3      19.969847   18.827457   24.201274 C.3        1 MOL1        -0.1685
       8    H5      20.175133   17.954509   24.835819 H          1 MOL1         0.0832
       9    H6      19.830944   19.672225   24.889773 H          1 MOL1         0.0832
      10    C4      21.205827   19.089480   23.306355 C.3        1 MOL1        -0.1761
      11    H7      22.097026   19.026769   23.944569 H          1 MOL1         0.0832
      12    H8      21.313278   18.298225   22.553118 H          1 MOL1         0.0832
      13    C5      21.169359   20.478640   22.630683 C.3        1 MOL1         0.1218
      14    H9      20.663074   21.178849   23.310554 H          1 MOL1         0.0789
      15    C6      20.438771   20.511166   21.268890 C.3        1 MOL1        -0.1761
      16    H10     20.195259   21.558553   21.048593 H          1 MOL1         0.0832
      17    H11     21.129896   20.190345   20.477986 H          1 MOL1         0.0832
      18    C7      19.145915   19.665280   21.154678 C.3        1 MOL1        -0.1685
      19    H12     18.562989   20.049165   20.306354 H          1 MOL1         0.0832
      20    H13     19.405503   18.631466   20.889060 H          1 MOL1         0.0832
      21    O1      22.504648   20.923624   22.425225 O.3        1 MOL1        -0.5509
      22    H14     22.926425   20.968287   23.308813 H          1 MOL1         0.3779
@<TRIPOS>BOND
    1     1     2    1
    2     1     3    1
    3     1     4    1
    4     4     5    1
    5     4     6    1
    6     4     7    1
    7     7     8    1
    8     7     9    1
    9     7    10    1
   10    10    11    1
   11    10    12    1
   12    10    13    1
   13    13    14    1
   14    13    15    1
   15    15    16    1
   16    15    17    1
   17     1    18    1
   18    15    18    1
   19    18    19    1
   20    18    20    1
   21    13    21    1
   22    21    22    1
@<TRIPOS>SUBSTRUCTURE
       1 MOL1            1 RESIDUE      1      MOL     
@<SCITEGIC>MOL_PROPERTY
VConf Rank
SciTegic.value.IntegerValue
450

@<SCITEGIC>MOL_PROPERTY
Conf_Id
SciTegic.value.IntegerValue
144

@<SCITEGIC>MOL_PROPERTY
Delta U+W
SciTegic.value.DoubleValue
-3.291

@<SCITEGIC>MOL_PROPERTY
U+W
SciTegic.value.DoubleValue
3.132

@<SCITEGIC>MOL_PROPERTY
Grad RMS
SciTegic.value.DoubleValue
0.000000

@<SCITEGIC>MOL_PROPERTY
U
SciTegic.value.DoubleValue
5.411

@<SCITEGIC>MOL_PROPERTY
W
SciTegic.value.DoubleValue
-2.279

@<SCITEGIC>MOL_PROPERTY
W(PB)
SciTegic.value.DoubleValue
-4.300

@<SCITEGIC>MOL_PROPERTY
W(SA)
SciTegic.value.DoubleValue
2.021

@<SCITEGIC>MOL_PROPERTY
Valence
SciTegic.value.DoubleValue
11.909

@<SCITEGIC>MOL_PROPERTY
Coulomb
SciTegic.value.DoubleValue
-8.733

@<SCITEGIC>MOL_PROPERTY
VdW
SciTegic.value.DoubleValue
2.236

@<SCITEGIC>MOL_PROPERTY
VdW6
SciTegic.value.DoubleValue
-8.936

@<SCITEGIC>MOL_PROPERTY
VdW12
SciTegic.value.DoubleValue
11.172

@<SCITEGIC>MOL_PROPERTY
Bond
SciTegic.value.DoubleValue
0.223

@<SCITEGIC>MOL_PROPERTY
Angle
SciTegic.value.DoubleValue
2.457

@<SCITEGIC>MOL_PROPERTY
Pdih
SciTegic.value.DoubleValue
9.228

@<SCITEGIC>MOL_PROPERTY
Idih
SciTegic.value.DoubleValue
0.000

@<SCITEGIC>MOL_PROPERTY
Tether
SciTegic.value.DoubleValue
0.000

@<TRIPOS>MOLECULE
guest-5_confgen4.mol2 : confsearch ligand conformer 451
          22          22           1
SMALL
USER_CHARGES
 
@<TRIPOS>ATOM
       1    C1      19.062481   19.373931   24.137018 C.3        1 MOL1        -0.1685
       2    H1      18.478196   18.982389   24.980936 H          1 MOL1         0.0832
       3    H2      19.262160   20.428888   24.369130 H          1 MOL1         0.0832
       4    C2      18.201984   19.244282   22.858421 C.3        1 MOL1        -0.1685
       5    H3      18.285379   18.222516   22.463688 H          1 MOL1         0.0832
       6    H4      17.144182   19.368593   23.127866 H          1 MOL1         0.0832
       7    C3      18.531509   20.261808   21.739504 C.3        1 MOL1        -0.1685
       8    H5      18.003363   21.202876   21.945339 H          1 MOL1         0.0832
       9    H6      18.110456   19.883440   20.797925 H          1 MOL1         0.0832
      10    C4      20.030557   20.586892   21.526630 C.3        1 MOL1        -0.1761
      11    H7      20.138881   21.033986   20.529212 H          1 MOL1         0.0832
      12    H8      20.334690   21.366588   22.236892 H          1 MOL1         0.0832
      13    C5      20.984098   19.377922   21.656020 C.3        1 MOL1         0.1218
      14    H9      20.484791   18.473303   21.280750 H          1 MOL1         0.0789
      15    C6      21.452866   19.145994   23.110477 C.3        1 MOL1        -0.1761
      16    H10     22.305835   18.454298   23.098980 H          1 MOL1         0.0832
      17    H11     21.831871   20.087940   23.527825 H          1 MOL1         0.0832
      18    C7      20.379800   18.565228   24.061768 C.3        1 MOL1        -0.1685
      19    H12     20.156204   17.530068   23.769579 H          1 MOL1         0.0832
      20    H13     20.811716   18.504760   25.070024 H          1 MOL1         0.0832
      21    O1      22.135404   19.629917   20.861536 O.3        1 MOL1        -0.5509
      22    H14     22.549652   20.440006   21.223909 H          1 MOL1         0.3779
@<TRIPOS>BOND
    1     1     2    1
    2     1     3    1
    3     1     4    1
    4     4     5    1
    5     4     6    1
    6     4     7    1
    7     7     8    1
    8     7     9    1
    9     7    10    1
   10    10    11    1
   11    10    12    1
   12    10    13    1
   13    13    14    1
   14    13    15    1
   15    15    16    1
   16    15    17    1
   17     1    18    1
   18    15    18    1
   19    18    19    1
   20    18    20    1
   21    13    21    1
   22    21    22    1
@<TRIPOS>SUBSTRUCTURE
       1 MOL1            1 RESIDUE      1      MOL     
@<SCITEGIC>MOL_PROPERTY
VConf Rank
SciTegic.value.IntegerValue
451

@<SCITEGIC>MOL_PROPERTY
Conf_Id
SciTegic.value.IntegerValue
76

@<SCITEGIC>MOL_PROPERTY
Delta U+W
SciTegic.value.DoubleValue
-3.175

@<SCITEGIC>MOL_PROPERTY
U+W
SciTegic.value.DoubleValue
3.248

@<SCITEGIC>MOL_PROPERTY
Grad RMS
SciTegic.value.DoubleValue
0.000000

@<SCITEGIC>MOL_PROPERTY
U
SciTegic.value.DoubleValue
5.336

@<SCITEGIC>MOL_PROPERTY
W
SciTegic.value.DoubleValue
-2.088

@<SCITEGIC>MOL_PROPERTY
W(PB)
SciTegic.value.DoubleValue
-4.098

@<SCITEGIC>MOL_PROPERTY
W(SA)
SciTegic.value.DoubleValue
2.010

@<SCITEGIC>MOL_PROPERTY
Valence
SciTegic.value.DoubleValue
12.390

@<SCITEGIC>MOL_PROPERTY
Coulomb
SciTegic.value.DoubleValue
-9.270

@<SCITEGIC>MOL_PROPERTY
VdW
SciTegic.value.DoubleValue
2.216

@<SCITEGIC>MOL_PROPERTY
VdW6
SciTegic.value.DoubleValue
-8.967

@<SCITEGIC>MOL_PROPERTY
VdW12
SciTegic.value.DoubleValue
11.183

@<SCITEGIC>MOL_PROPERTY
Bond
SciTegic.value.DoubleValue
0.218

@<SCITEGIC>MOL_PROPERTY
Angle
SciTegic.value.DoubleValue
2.426

@<SCITEGIC>MOL_PROPERTY
Pdih
SciTegic.value.DoubleValue
9.745

@<SCITEGIC>MOL_PROPERTY
Idih
SciTegic.value.DoubleValue
0.000

@<SCITEGIC>MOL_PROPERTY
Tether
SciTegic.value.DoubleValue
0.000

@<TRIPOS>MOLECULE
guest-5_confgen4.mol2 : confsearch ligand conformer 452
          22          22           1
SMALL
USER_CHARGES
 
@<TRIPOS>ATOM
       1    C1      21.757004   19.908817   21.950395 C.3        1 MOL1        -0.1685
       2    H1      22.073655   20.815828   21.417624 H          1 MOL1         0.0832
       3    H2      22.656220   19.283436   22.034804 H          1 MOL1         0.0832
       4    C2      20.714511   19.172567   21.075285 C.3        1 MOL1        -0.1685
       5    H3      20.083885   19.908821   20.558836 H          1 MOL1         0.0832
       6    H4      21.254207   18.639523   20.280693 H          1 MOL1         0.0832
       7    C3      19.816336   18.167710   21.833630 C.3        1 MOL1        -0.1685
       8    H5      20.384668   17.642282   22.613219 H          1 MOL1         0.0832
       9    H6      19.490792   17.396916   21.122160 H          1 MOL1         0.0832
      10    C4      18.546286   18.827952   22.427879 C.3        1 MOL1        -0.1761
      11    H7      18.038603   19.404022   21.643714 H          1 MOL1         0.0832
      12    H8      17.841726   18.036385   22.714984 H          1 MOL1         0.0832
      13    C5      18.762250   19.741623   23.655749 C.3        1 MOL1         0.1218
      14    H9      17.810973   20.263644   23.833686 H          1 MOL1         0.0789
      15    C6      19.853418   20.828223   23.485039 C.3        1 MOL1        -0.1761
      16    H10     19.620545   21.455887   22.615162 H          1 MOL1         0.0832
      17    H11     19.795521   21.495047   24.354971 H          1 MOL1         0.0832
      18    C7      21.305307   20.293344   23.379497 C.3        1 MOL1        -0.1685
      19    H12     21.993615   21.062543   23.754979 H          1 MOL1         0.0832
      20    H13     21.439188   19.432495   24.047670 H          1 MOL1         0.0832
      21    O1      19.046618   18.937036   24.795836 O.3        1 MOL1        -0.5509
      22    H14     19.226894   19.553708   25.534415 H          1 MOL1         0.3779
@<TRIPOS>BOND
    1     1     2    1
    2     1     3    1
    3     1     4    1
    4     4     5    1
    5     4     6    1
    6     4     7    1
    7     7     8    1
    8     7     9    1
    9     7    10    1
   10    10    11    1
   11    10    12    1
   12    10    13    1
   13    13    14    1
   14    13    15    1
   15    15    16    1
   16    15    17    1
   17     1    18    1
   18    15    18    1
   19    18    19    1
   20    18    20    1
   21    13    21    1
   22    21    22    1
@<TRIPOS>SUBSTRUCTURE
       1 MOL1            1 RESIDUE      1      MOL     
@<SCITEGIC>MOL_PROPERTY
VConf Rank
SciTegic.value.IntegerValue
452

@<SCITEGIC>MOL_PROPERTY
Conf_Id
SciTegic.value.IntegerValue
95

@<SCITEGIC>MOL_PROPERTY
Delta U+W
SciTegic.value.DoubleValue
-2.289

@<SCITEGIC>MOL_PROPERTY
U+W
SciTegic.value.DoubleValue
4.134

@<SCITEGIC>MOL_PROPERTY
Grad RMS
SciTegic.value.DoubleValue
0.000000

@<SCITEGIC>MOL_PROPERTY
U
SciTegic.value.DoubleValue
6.373

@<SCITEGIC>MOL_PROPERTY
W
SciTegic.value.DoubleValue
-2.240

@<SCITEGIC>MOL_PROPERTY
W(PB)
SciTegic.value.DoubleValue
-4.254

@<SCITEGIC>MOL_PROPERTY
W(SA)
SciTegic.value.DoubleValue
2.015

@<SCITEGIC>MOL_PROPERTY
Valence
SciTegic.value.DoubleValue
12.093

@<SCITEGIC>MOL_PROPERTY
Coulomb
SciTegic.value.DoubleValue
-8.058

@<SCITEGIC>MOL_PROPERTY
VdW
SciTegic.value.DoubleValue
2.339

@<SCITEGIC>MOL_PROPERTY
VdW6
SciTegic.value.DoubleValue
-9.683

@<SCITEGIC>MOL_PROPERTY
VdW12
SciTegic.value.DoubleValue
12.022

@<SCITEGIC>MOL_PROPERTY
Bond
SciTegic.value.DoubleValue
0.268

@<SCITEGIC>MOL_PROPERTY
Angle
SciTegic.value.DoubleValue
3.005

@<SCITEGIC>MOL_PROPERTY
Pdih
SciTegic.value.DoubleValue
8.820

@<SCITEGIC>MOL_PROPERTY
Idih
SciTegic.value.DoubleValue
0.000

@<SCITEGIC>MOL_PROPERTY
Tether
SciTegic.value.DoubleValue
0.000

@<TRIPOS>MOLECULE
guest-5_confgen4.mol2 : confsearch ligand conformer 453
          22          22           1
SMALL
USER_CHARGES
 
@<TRIPOS>ATOM
       1    C1      21.179152   19.162530   24.172955 C.3        1 MOL1        -0.1685
       2    H1      22.008507   18.442238   24.183152 H          1 MOL1         0.0832
       3    H2      21.152874   19.600906   25.179894 H          1 MOL1         0.0832
       4    C2      19.864325   18.383301   23.931376 C.3        1 MOL1        -0.1685
       5    H3      20.053239   17.553097   23.237437 H          1 MOL1         0.0832
       6    H4      19.570136   17.912149   24.879146 H          1 MOL1         0.0832
       7    C3      18.684860   19.234747   23.406573 C.3        1 MOL1        -0.1685
       8    H5      18.681755   20.230546   23.870462 H          1 MOL1         0.0832
       9    H6      17.749949   18.750030   23.718692 H          1 MOL1         0.0832
      10    C4      18.667459   19.343123   21.860850 C.3        1 MOL1        -0.1761
      11    H7      18.758116   18.337827   21.429507 H          1 MOL1         0.0832
      12    H8      17.680975   19.707084   21.545630 H          1 MOL1         0.0832
      13    C5      19.746642   20.251653   21.228653 C.3        1 MOL1         0.1218
      14    H9      19.708875   20.081449   20.142971 H          1 MOL1         0.0789
      15    C6      21.199100   19.962098   21.683468 C.3        1 MOL1        -0.1761
      16    H10     21.457516   18.917223   21.469117 H          1 MOL1         0.0832
      17    H11     21.862857   20.570048   21.055256 H          1 MOL1         0.0832
      18    C7      21.503875   20.293187   23.167697 C.3        1 MOL1        -0.1685
      19    H12     22.571323   20.533240   23.263323 H          1 MOL1         0.0832
      20    H13     20.973633   21.208397   23.462406 H          1 MOL1         0.0832
      21    O1      19.419271   21.615769   21.475451 O.3        1 MOL1        -0.5509
      22    H14     18.491895   21.739175   21.187473 H          1 MOL1         0.3779
@<TRIPOS>BOND
    1     1     2    1
    2     1     3    1
    3     1     4    1
    4     4     5    1
    5     4     6    1
    6     4     7    1
    7     7     8    1
    8     7     9    1
    9     7    10    1
   10    10    11    1
   11    10    12    1
   12    10    13    1
   13    13    14    1
   14    13    15    1
   15    15    16    1
   16    15    17    1
   17     1    18    1
   18    15    18    1
   19    18    19    1
   20    18    20    1
   21    13    21    1
   22    21    22    1
@<TRIPOS>SUBSTRUCTURE
       1 MOL1            1 RESIDUE      1      MOL     
@<SCITEGIC>MOL_PROPERTY
VConf Rank
SciTegic.value.IntegerValue
453

@<SCITEGIC>MOL_PROPERTY
Conf_Id
SciTegic.value.IntegerValue
41

@<SCITEGIC>MOL_PROPERTY
Delta U+W
SciTegic.value.DoubleValue
-2.114

@<SCITEGIC>MOL_PROPERTY
U+W
SciTegic.value.DoubleValue
4.310

@<SCITEGIC>MOL_PROPERTY
Grad RMS
SciTegic.value.DoubleValue
0.000000

@<SCITEGIC>MOL_PROPERTY
U
SciTegic.value.DoubleValue
6.598

@<SCITEGIC>MOL_PROPERTY
W
SciTegic.value.DoubleValue
-2.289

@<SCITEGIC>MOL_PROPERTY
W(PB)
SciTegic.value.DoubleValue
-4.294

@<SCITEGIC>MOL_PROPERTY
W(SA)
SciTegic.value.DoubleValue
2.005

@<SCITEGIC>MOL_PROPERTY
Valence
SciTegic.value.DoubleValue
12.082

@<SCITEGIC>MOL_PROPERTY
Coulomb
SciTegic.value.DoubleValue
-7.801

@<SCITEGIC>MOL_PROPERTY
VdW
SciTegic.value.DoubleValue
2.317

@<SCITEGIC>MOL_PROPERTY
VdW6
SciTegic.value.DoubleValue
-9.658

@<SCITEGIC>MOL_PROPERTY
VdW12
SciTegic.value.DoubleValue
11.975

@<SCITEGIC>MOL_PROPERTY
Bond
SciTegic.value.DoubleValue
0.267

@<SCITEGIC>MOL_PROPERTY
Angle
SciTegic.value.DoubleValue
3.051

@<SCITEGIC>MOL_PROPERTY
Pdih
SciTegic.value.DoubleValue
8.764

@<SCITEGIC>MOL_PROPERTY
Idih
SciTegic.value.DoubleValue
0.000

@<SCITEGIC>MOL_PROPERTY
Tether
SciTegic.value.DoubleValue
0.000

@<TRIPOS>MOLECULE
guest-5_confgen4.mol2 : confsearch ligand conformer 454
          22          22           1
SMALL
USER_CHARGES
 
@<TRIPOS>ATOM
       1    C1      18.780230   20.352464   23.354694 C.3        1 MOL1        -0.1685
       2    H1      17.844330   20.901338   23.526094 H          1 MOL1         0.0832
       3    H2      19.059975   19.911266   24.321268 H          1 MOL1         0.0832
       4    C2      19.846896   21.368516   22.888594 C.3        1 MOL1        -0.1685
       5    H3      19.580460   21.750810   21.893886 H          1 MOL1         0.0832
       6    H4      19.822169   22.236501   23.561313 H          1 MOL1         0.0832
       7    C3      21.290284   20.819843   22.860114 C.3        1 MOL1        -0.1685
       8    H5      21.631519   20.635641   23.887499 H          1 MOL1         0.0832
       9    H6      21.945153   21.610567   22.470208 H          1 MOL1         0.0832
      10    C4      21.495046   19.545985   21.996086 C.3        1 MOL1        -0.1761
      11    H7      21.083886   19.702600   20.990761 H          1 MOL1         0.0832
      12    H8      22.575082   19.409524   21.856504 H          1 MOL1         0.0832
      13    C5      20.941234   18.225720   22.591253 C.3        1 MOL1         0.1218
      14    H9      21.430356   17.404895   22.046934 H          1 MOL1         0.0789
      15    C6      19.415264   17.999315   22.432209 C.3        1 MOL1        -0.1761
      16    H10     19.255532   17.385375   21.536315 H          1 MOL1         0.0832
      17    H11     19.055371   17.386571   23.269164 H          1 MOL1         0.0832
      18    C7      18.509167   19.249299   22.308000 C.3        1 MOL1        -0.1685
      19    H12     18.589325   19.669073   21.296181 H          1 MOL1         0.0832
      20    H13     17.466240   18.919121   22.407827 H          1 MOL1         0.0832
      21    O1      21.303021   18.107824   23.964618 O.3        1 MOL1        -0.5509
      22    H14     20.963348   17.243384   24.273286 H          1 MOL1         0.3779
@<TRIPOS>BOND
    1     1     2    1
    2     1     3    1
    3     1     4    1
    4     4     5    1
    5     4     6    1
    6     4     7    1
    7     7     8    1
    8     7     9    1
    9     7    10    1
   10    10    11    1
   11    10    12    1
   12    10    13    1
   13    13    14    1
   14    13    15    1
   15    15    16    1
   16    15    17    1
   17     1    18    1
   18    15    18    1
   19    18    19    1
   20    18    20    1
   21    13    21    1
   22    21    22    1
@<TRIPOS>SUBSTRUCTURE
       1 MOL1            1 RESIDUE      1      MOL     
@<SCITEGIC>MOL_PROPERTY
VConf Rank
SciTegic.value.IntegerValue
454

@<SCITEGIC>MOL_PROPERTY
Conf_Id
SciTegic.value.IntegerValue
104

@<SCITEGIC>MOL_PROPERTY
Delta U+W
SciTegic.value.DoubleValue
-1.172

@<SCITEGIC>MOL_PROPERTY
U+W
SciTegic.value.DoubleValue
5.252

@<SCITEGIC>MOL_PROPERTY
Grad RMS
SciTegic.value.DoubleValue
0.000000

@<SCITEGIC>MOL_PROPERTY
U
SciTegic.value.DoubleValue
7.482

@<SCITEGIC>MOL_PROPERTY
W
SciTegic.value.DoubleValue
-2.230

@<SCITEGIC>MOL_PROPERTY
W(PB)
SciTegic.value.DoubleValue
-4.220

@<SCITEGIC>MOL_PROPERTY
W(SA)
SciTegic.value.DoubleValue
1.990

@<SCITEGIC>MOL_PROPERTY
Valence
SciTegic.value.DoubleValue
12.309

@<SCITEGIC>MOL_PROPERTY
Coulomb
SciTegic.value.DoubleValue
-7.084

@<SCITEGIC>MOL_PROPERTY
VdW
SciTegic.value.DoubleValue
2.258

@<SCITEGIC>MOL_PROPERTY
VdW6
SciTegic.value.DoubleValue
-9.770

@<SCITEGIC>MOL_PROPERTY
VdW12
SciTegic.value.DoubleValue
12.028

@<SCITEGIC>MOL_PROPERTY
Bond
SciTegic.value.DoubleValue
0.284

@<SCITEGIC>MOL_PROPERTY
Angle
SciTegic.value.DoubleValue
3.491

@<SCITEGIC>MOL_PROPERTY
Pdih
SciTegic.value.DoubleValue
8.535

@<SCITEGIC>MOL_PROPERTY
Idih
SciTegic.value.DoubleValue
0.000

@<SCITEGIC>MOL_PROPERTY
Tether
SciTegic.value.DoubleValue
0.000

@<TRIPOS>MOLECULE
guest-5_confgen4.mol2 : confsearch ligand conformer 455
          22          22           1
SMALL
USER_CHARGES
 
@<TRIPOS>ATOM
       1    C1      19.916596   18.673470   24.028571 C.3        1 MOL1        -0.1685
       2    H1      18.900772   18.342902   23.773012 H          1 MOL1         0.0832
       3    H2      20.147981   18.215413   24.999954 H          1 MOL1         0.0832
       4    C2      19.969836   20.208246   24.204959 C.3        1 MOL1        -0.1685
       5    H3      19.578713   20.460257   25.200329 H          1 MOL1         0.0832
       6    H4      21.017412   20.536407   24.220179 H          1 MOL1         0.0832
       7    C3      19.172497   21.032064   23.162248 C.3        1 MOL1        -0.1685
       8    H5      19.620925   22.032787   23.093098 H          1 MOL1         0.0832
       9    H6      18.157507   21.194136   23.550135 H          1 MOL1         0.0832
      10    C4      19.037934   20.434414   21.735394 C.3        1 MOL1        -0.1761
      11    H7      18.256928   19.663086   21.741623 H          1 MOL1         0.0832
      12    H8      18.658427   21.222645   21.072319 H          1 MOL1         0.0832
      13    C5      20.315091   19.842555   21.096211 C.3        1 MOL1         0.1218
      14    H9      20.163417   19.837228   20.007245 H          1 MOL1         0.0789
      15    C6      20.574482   18.378710   21.518279 C.3        1 MOL1        -0.1761
      16    H10     19.687229   17.780042   21.274480 H          1 MOL1         0.0832
      17    H11     21.381825   17.979572   20.890480 H          1 MOL1         0.0832
      18    C7      20.946549   18.142782   23.003101 C.3        1 MOL1        -0.1685
      19    H12     21.057203   17.060350   23.154125 H          1 MOL1         0.0832
      20    H13     21.935661   18.572321   23.211984 H          1 MOL1         0.0832
      21    O1      21.443915   20.646990   21.400858 O.3        1 MOL1        -0.5509
      22    H14     21.462808   20.671143   22.378276 H          1 MOL1         0.3779
@<TRIPOS>BOND
    1     1     2    1
    2     1     3    1
    3     1     4    1
    4     4     5    1
    5     4     6    1
    6     4     7    1
    7     7     8    1
    8     7     9    1
    9     7    10    1
   10    10    11    1
   11    10    12    1
   12    10    13    1
   13    13    14    1
   14    13    15    1
   15    15    16    1
   16    15    17    1
   17     1    18    1
   18    15    18    1
   19    18    19    1
   20    18    20    1
   21    13    21    1
   22    21    22    1
@<TRIPOS>SUBSTRUCTURE
       1 MOL1            1 RESIDUE      1      MOL     
@<SCITEGIC>MOL_PROPERTY
VConf Rank
SciTegic.value.IntegerValue
455

@<SCITEGIC>MOL_PROPERTY
Conf_Id
SciTegic.value.IntegerValue
99

@<SCITEGIC>MOL_PROPERTY
Delta U+W
SciTegic.value.DoubleValue
-3.852

@<SCITEGIC>MOL_PROPERTY
U+W
SciTegic.value.DoubleValue
2.572

@<SCITEGIC>MOL_PROPERTY
Grad RMS
SciTegic.value.DoubleValue
0.000000

@<SCITEGIC>MOL_PROPERTY
U
SciTegic.value.DoubleValue
3.922

@<SCITEGIC>MOL_PROPERTY
W
SciTegic.value.DoubleValue
-1.350

@<SCITEGIC>MOL_PROPERTY
W(PB)
SciTegic.value.DoubleValue
-3.345

@<SCITEGIC>MOL_PROPERTY
W(SA)
SciTegic.value.DoubleValue
1.995

@<SCITEGIC>MOL_PROPERTY
Valence
SciTegic.value.DoubleValue
12.571

@<SCITEGIC>MOL_PROPERTY
Coulomb
SciTegic.value.DoubleValue
-10.581

@<SCITEGIC>MOL_PROPERTY
VdW
SciTegic.value.DoubleValue
1.932

@<SCITEGIC>MOL_PROPERTY
VdW6
SciTegic.value.DoubleValue
-10.483

@<SCITEGIC>MOL_PROPERTY
VdW12
SciTegic.value.DoubleValue
12.415

@<SCITEGIC>MOL_PROPERTY
Bond
SciTegic.value.DoubleValue
0.268

@<SCITEGIC>MOL_PROPERTY
Angle
SciTegic.value.DoubleValue
3.728

@<SCITEGIC>MOL_PROPERTY
Pdih
SciTegic.value.DoubleValue
8.575

@<SCITEGIC>MOL_PROPERTY
Idih
SciTegic.value.DoubleValue
0.000

@<SCITEGIC>MOL_PROPERTY
Tether
SciTegic.value.DoubleValue
0.000

@<TRIPOS>MOLECULE
guest-5_confgen4.mol2 : confsearch ligand conformer 456
          22          22           1
SMALL
USER_CHARGES
 
@<TRIPOS>ATOM
       1    C1      18.572311   18.920879   22.410476 C.3        1 MOL1        -0.1685
       2    H1      17.494490   19.005499   22.214434 H          1 MOL1         0.0832
       3    H2      18.772903   17.841293   22.428144 H          1 MOL1         0.0832
       4    C2      18.853110   19.541652   23.810350 C.3        1 MOL1        -0.1685
       5    H3      17.896804   19.894812   24.220284 H          1 MOL1         0.0832
       6    H4      19.190343   18.763860   24.508467 H          1 MOL1         0.0832
       7    C3      19.846982   20.730836   23.838790 C.3        1 MOL1        -0.1685
       8    H5      19.805970   21.192847   24.834577 H          1 MOL1         0.0832
       9    H6      19.503002   21.517352   23.155679 H          1 MOL1         0.0832
      10    C4      21.331497   20.385393   23.535952 C.3        1 MOL1        -0.1761
      11    H7      21.835383   21.301335   23.201450 H          1 MOL1         0.0832
      12    H8      21.823193   20.111738   24.479002 H          1 MOL1         0.0832
      13    C5      21.627439   19.261562   22.512438 C.3        1 MOL1         0.1218
      14    H9      22.697970   19.324240   22.269934 H          1 MOL1         0.0789
      15    C6      20.857211   19.336254   21.171053 C.3        1 MOL1        -0.1761
      16    H10     21.305182   20.128035   20.556931 H          1 MOL1         0.0832
      17    H11     21.050301   18.402446   20.626337 H          1 MOL1         0.0832
      18    C7      19.321407   19.568448   21.217889 C.3        1 MOL1        -0.1685
      19    H12     19.108405   20.644198   21.186880 H          1 MOL1         0.0832
      20    H13     18.893642   19.175440   20.285534 H          1 MOL1         0.0832
      21    O1      21.408467   17.996909   23.117373 O.3        1 MOL1        -0.5509
      22    H14     20.449857   17.990874   23.312215 H          1 MOL1         0.3779
@<TRIPOS>BOND
    1     1     2    1
    2     1     3    1
    3     1     4    1
    4     4     5    1
    5     4     6    1
    6     4     7    1
    7     7     8    1
    8     7     9    1
    9     7    10    1
   10    10    11    1
   11    10    12    1
   12    10    13    1
   13    13    14    1
   14    13    15    1
   15    15    16    1
   16    15    17    1
   17     1    18    1
   18    15    18    1
   19    18    19    1
   20    18    20    1
   21    13    21    1
   22    21    22    1
@<TRIPOS>SUBSTRUCTURE
       1 MOL1            1 RESIDUE      1      MOL     
@<SCITEGIC>MOL_PROPERTY
VConf Rank
SciTegic.value.IntegerValue
456

@<SCITEGIC>MOL_PROPERTY
Conf_Id
SciTegic.value.IntegerValue
98

@<SCITEGIC>MOL_PROPERTY
Delta U+W
SciTegic.value.DoubleValue
0.930

@<SCITEGIC>MOL_PROPERTY
U+W
SciTegic.value.DoubleValue
7.353

@<SCITEGIC>MOL_PROPERTY
Grad RMS
SciTegic.value.DoubleValue
0.000000

@<SCITEGIC>MOL_PROPERTY
U
SciTegic.value.DoubleValue
8.455

@<SCITEGIC>MOL_PROPERTY
W
SciTegic.value.DoubleValue
-1.102

@<SCITEGIC>MOL_PROPERTY
W(PB)
SciTegic.value.DoubleValue
-3.101

@<SCITEGIC>MOL_PROPERTY
W(SA)
SciTegic.value.DoubleValue
2.000

@<SCITEGIC>MOL_PROPERTY
Valence
SciTegic.value.DoubleValue
15.601

@<SCITEGIC>MOL_PROPERTY
Coulomb
SciTegic.value.DoubleValue
-10.573

@<SCITEGIC>MOL_PROPERTY
VdW
SciTegic.value.DoubleValue
3.427

@<SCITEGIC>MOL_PROPERTY
VdW6
SciTegic.value.DoubleValue
-11.360

@<SCITEGIC>MOL_PROPERTY
VdW12
SciTegic.value.DoubleValue
14.787

@<SCITEGIC>MOL_PROPERTY
Bond
SciTegic.value.DoubleValue
0.471

@<SCITEGIC>MOL_PROPERTY
Angle
SciTegic.value.DoubleValue
5.445

@<SCITEGIC>MOL_PROPERTY
Pdih
SciTegic.value.DoubleValue
9.685

@<SCITEGIC>MOL_PROPERTY
Idih
SciTegic.value.DoubleValue
0.000

@<SCITEGIC>MOL_PROPERTY
Tether
SciTegic.value.DoubleValue
0.000

@<TRIPOS>MOLECULE
guest-5_confgen4.mol2 : confsearch ligand conformer 457
          22          22           1
SMALL
USER_CHARGES
 
@<TRIPOS>ATOM
       1    C1      18.411091   19.377683   23.250966 C.3        1 MOL1        -0.1685
       2    H1      18.282830   20.446457   23.036370 H          1 MOL1         0.0832
       3    H2      17.430781   19.040101   23.613931 H          1 MOL1         0.0832
       4    C2      19.448476   19.192315   24.387465 C.3        1 MOL1        -0.1685
       5    H3      19.073214   19.730426   25.268651 H          1 MOL1         0.0832
       6    H4      19.488454   18.134231   24.679841 H          1 MOL1         0.0832
       7    C3      20.888697   19.694926   24.091175 C.3        1 MOL1        -0.1685
       8    H5      21.546283   18.844109   23.870485 H          1 MOL1         0.0832
       9    H6      21.294461   20.134217   25.012595 H          1 MOL1         0.0832
      10    C4      20.997712   20.742138   22.951362 C.3        1 MOL1        -0.1761
      11    H7      20.291876   21.559448   23.144820 H          1 MOL1         0.0832
      12    H8      21.990556   21.208742   23.005492 H          1 MOL1         0.0832
      13    C5      20.772334   20.202765   21.508396 C.3        1 MOL1         0.1218
      14    H9      20.095946   20.896901   20.989029 H          1 MOL1         0.0789
      15    C6      20.174737   18.777189   21.404145 C.3        1 MOL1        -0.1761
      16    H10     20.178770   18.466170   20.351382 H          1 MOL1         0.0832
      17    H11     20.831974   18.063206   21.914887 H          1 MOL1         0.0832
      18    C7      18.729222   18.622234   21.939200 C.3        1 MOL1        -0.1685
      19    H12     18.026102   18.965601   21.168139 H          1 MOL1         0.0832
      20    H13     18.522910   17.552556   22.080250 H          1 MOL1         0.0832
      21    O1      22.023872   20.190962   20.831131 O.3        1 MOL1        -0.5509
      22    H14     21.844959   19.903427   19.911624 H          1 MOL1         0.3779
@<TRIPOS>BOND
    1     1     2    1
    2     1     3    1
    3     1     4    1
    4     4     5    1
    5     4     6    1
    6     4     7    1
    7     7     8    1
    8     7     9    1
    9     7    10    1
   10    10    11    1
   11    10    12    1
   12    10    13    1
   13    13    14    1
   14    13    15    1
   15    15    16    1
   16    15    17    1
   17     1    18    1
   18    15    18    1
   19    18    19    1
   20    18    20    1
   21    13    21    1
   22    21    22    1
@<TRIPOS>SUBSTRUCTURE
       1 MOL1            1 RESIDUE      1      MOL     
@<SCITEGIC>MOL_PROPERTY
VConf Rank
SciTegic.value.IntegerValue
457

@<SCITEGIC>MOL_PROPERTY
Conf_Id
SciTegic.value.IntegerValue
141

@<SCITEGIC>MOL_PROPERTY
Delta U+W
SciTegic.value.DoubleValue
0.000

@<SCITEGIC>MOL_PROPERTY
U+W
SciTegic.value.DoubleValue
6.423

@<SCITEGIC>MOL_PROPERTY
Grad RMS
SciTegic.value.DoubleValue
0.000000

@<SCITEGIC>MOL_PROPERTY
U
SciTegic.value.DoubleValue
8.781

@<SCITEGIC>MOL_PROPERTY
W
SciTegic.value.DoubleValue
-2.358

@<SCITEGIC>MOL_PROPERTY
W(PB)
SciTegic.value.DoubleValue
-4.373

@<SCITEGIC>MOL_PROPERTY
W(SA)
SciTegic.value.DoubleValue
2.015

@<SCITEGIC>MOL_PROPERTY
Valence
SciTegic.value.DoubleValue
13.328

@<SCITEGIC>MOL_PROPERTY
Coulomb
SciTegic.value.DoubleValue
-8.387

@<SCITEGIC>MOL_PROPERTY
VdW
SciTegic.value.DoubleValue
3.840

@<SCITEGIC>MOL_PROPERTY
VdW6
SciTegic.value.DoubleValue
-9.744

@<SCITEGIC>MOL_PROPERTY
VdW12
SciTegic.value.DoubleValue
13.584

@<SCITEGIC>MOL_PROPERTY
Bond
SciTegic.value.DoubleValue
0.436

@<SCITEGIC>MOL_PROPERTY
Angle
SciTegic.value.DoubleValue
3.478

@<SCITEGIC>MOL_PROPERTY
Pdih
SciTegic.value.DoubleValue
9.415

@<SCITEGIC>MOL_PROPERTY
Idih
SciTegic.value.DoubleValue
0.000

@<SCITEGIC>MOL_PROPERTY
Tether
SciTegic.value.DoubleValue
0.000

@<TRIPOS>MOLECULE
guest-5_confgen4.mol2 : confsearch ligand conformer 458
          22          22           1
SMALL
USER_CHARGES
 
@<TRIPOS>ATOM
       1    C1      20.327932   20.637123   24.032347 C.3        1 MOL1        -0.1685
       2    H1      21.141503   19.953362   24.310163 H          1 MOL1         0.0832
       3    H2      20.361505   21.460212   24.759190 H          1 MOL1         0.0832
       4    C2      18.950867   19.944191   24.170887 C.3        1 MOL1        -0.1685
       5    H3      18.752686   19.769655   25.237243 H          1 MOL1         0.0832
       6    H4      18.162665   20.628873   23.829087 H          1 MOL1         0.0832
       7    C3      18.813837   18.595264   23.427956 C.3        1 MOL1        -0.1685
       8    H5      17.780262   18.242461   23.546618 H          1 MOL1         0.0832
       9    H6      19.445564   17.842446   23.919022 H          1 MOL1         0.0832
      10    C4      19.149119   18.643618   21.917185 C.3        1 MOL1        -0.1761
      11    H7      18.795953   17.705777   21.468618 H          1 MOL1         0.0832
      12    H8      18.590380   19.448403   21.422081 H          1 MOL1         0.0832
      13    C5      20.663362   18.790166   21.646591 C.3        1 MOL1         0.1218
      14    H9      21.208000   18.267871   22.446228 H          1 MOL1         0.0789
      15    C6      21.167097   20.250441   21.590514 C.3        1 MOL1        -0.1761
      16    H10     22.257037   20.229984   21.718817 H          1 MOL1         0.0832
      17    H11     20.990137   20.657554   20.585997 H          1 MOL1         0.0832
      18    C7      20.562879   21.233079   22.624626 C.3        1 MOL1        -0.1685
      19    H12     21.239568   22.094240   22.710172 H          1 MOL1         0.0832
      20    H13     19.618295   21.638862   22.237572 H          1 MOL1         0.0832
      21    O1      20.968901   18.170479   20.403268 O.3        1 MOL1        -0.5509
      22    H14     20.711509   17.228446   20.486588 H          1 MOL1         0.3779
@<TRIPOS>BOND
    1     1     2    1
    2     1     3    1
    3     1     4    1
    4     4     5    1
    5     4     6    1
    6     4     7    1
    7     7     8    1
    8     7     9    1
    9     7    10    1
   10    10    11    1
   11    10    12    1
   12    10    13    1
   13    13    14    1
   14    13    15    1
   15    15    16    1
   16    15    17    1
   17     1    18    1
   18    15    18    1
   19    18    19    1
   20    18    20    1
   21    13    21    1
   22    21    22    1
@<TRIPOS>SUBSTRUCTURE
       1 MOL1            1 RESIDUE      1      MOL     
@<SCITEGIC>MOL_PROPERTY
VConf Rank
SciTegic.value.IntegerValue
458

@<SCITEGIC>MOL_PROPERTY
Conf_Id
SciTegic.value.IntegerValue
144

@<SCITEGIC>MOL_PROPERTY
Delta U+W
SciTegic.value.DoubleValue
-3.291

@<SCITEGIC>MOL_PROPERTY
U+W
SciTegic.value.DoubleValue
3.132

@<SCITEGIC>MOL_PROPERTY
Grad RMS
SciTegic.value.DoubleValue
0.000000

@<SCITEGIC>MOL_PROPERTY
U
SciTegic.value.DoubleValue
5.411

@<SCITEGIC>MOL_PROPERTY
W
SciTegic.value.DoubleValue
-2.279

@<SCITEGIC>MOL_PROPERTY
W(PB)
SciTegic.value.DoubleValue
-4.300

@<SCITEGIC>MOL_PROPERTY
W(SA)
SciTegic.value.DoubleValue
2.021

@<SCITEGIC>MOL_PROPERTY
Valence
SciTegic.value.DoubleValue
11.909

@<SCITEGIC>MOL_PROPERTY
Coulomb
SciTegic.value.DoubleValue
-8.733

@<SCITEGIC>MOL_PROPERTY
VdW
SciTegic.value.DoubleValue
2.236

@<SCITEGIC>MOL_PROPERTY
VdW6
SciTegic.value.DoubleValue
-8.936

@<SCITEGIC>MOL_PROPERTY
VdW12
SciTegic.value.DoubleValue
11.172

@<SCITEGIC>MOL_PROPERTY
Bond
SciTegic.value.DoubleValue
0.223

@<SCITEGIC>MOL_PROPERTY
Angle
SciTegic.value.DoubleValue
2.457

@<SCITEGIC>MOL_PROPERTY
Pdih
SciTegic.value.DoubleValue
9.228

@<SCITEGIC>MOL_PROPERTY
Idih
SciTegic.value.DoubleValue
0.000

@<SCITEGIC>MOL_PROPERTY
Tether
SciTegic.value.DoubleValue
0.000

@<TRIPOS>MOLECULE
guest-5_confgen4.mol2 : confsearch ligand conformer 459
          22          22           1
SMALL
USER_CHARGES
 
@<TRIPOS>ATOM
       1    C1      20.619676   20.740621   23.716544 C.3        1 MOL1        -0.1685
       2    H1      20.884771   21.676226   24.227678 H          1 MOL1         0.0832
       3    H2      21.166771   19.943706   24.238364 H          1 MOL1         0.0832
       4    C2      21.080467   20.852651   22.244404 C.3        1 MOL1        -0.1685
       5    H3      20.325438   21.402141   21.665814 H          1 MOL1         0.0832
       6    H4      21.988162   21.470150   22.202172 H          1 MOL1         0.0832
       7    C3      21.388292   19.504687   21.548589 C.3        1 MOL1        -0.1685
       8    H5      22.413345   19.199044   21.799118 H          1 MOL1         0.0832
       9    H6      21.383853   19.671196   20.462645 H          1 MOL1         0.0832
      10    C4      20.439122   18.327341   21.881863 C.3        1 MOL1        -0.1761
      11    H7      20.558525   17.567422   21.097813 H          1 MOL1         0.0832
      12    H8      20.770831   17.849293   22.812634 H          1 MOL1         0.0832
      13    C5      18.947023   18.708844   22.007130 C.3        1 MOL1         0.1218
      14    H9      18.712218   19.514940   21.297521 H          1 MOL1         0.0789
      15    C6      18.566599   19.150886   23.438512 C.3        1 MOL1        -0.1761
      16    H10     17.471754   19.160685   23.524240 H          1 MOL1         0.0832
      17    H11     18.920546   18.402382   24.159310 H          1 MOL1         0.0832
      18    C7      19.090890   20.545182   23.856572 C.3        1 MOL1        -0.1685
      19    H12     18.569549   21.319008   23.276641 H          1 MOL1         0.0832
      20    H13     18.810387   20.717079   24.904693 H          1 MOL1         0.0832
      21    O1      18.165154   17.567651   21.680677 O.3        1 MOL1        -0.5509
      22    H14     18.402700   16.874491   22.330493 H          1 MOL1         0.3779
@<TRIPOS>BOND
    1     1     2    1
    2     1     3    1
    3     1     4    1
    4     4     5    1
    5     4     6    1
    6     4     7    1
    7     7     8    1
    8     7     9    1
    9     7    10    1
   10    10    11    1
   11    10    12    1
   12    10    13    1
   13    13    14    1
   14    13    15    1
   15    15    16    1
   16    15    17    1
   17     1    18    1
   18    15    18    1
   19    18    19    1
   20    18    20    1
   21    13    21    1
   22    21    22    1
@<TRIPOS>SUBSTRUCTURE
       1 MOL1            1 RESIDUE      1      MOL     
@<SCITEGIC>MOL_PROPERTY
VConf Rank
SciTegic.value.IntegerValue
459

@<SCITEGIC>MOL_PROPERTY
Conf_Id
SciTegic.value.IntegerValue
76

@<SCITEGIC>MOL_PROPERTY
Delta U+W
SciTegic.value.DoubleValue
-3.175

@<SCITEGIC>MOL_PROPERTY
U+W
SciTegic.value.DoubleValue
3.248

@<SCITEGIC>MOL_PROPERTY
Grad RMS
SciTegic.value.DoubleValue
0.000000

@<SCITEGIC>MOL_PROPERTY
U
SciTegic.value.DoubleValue
5.336

@<SCITEGIC>MOL_PROPERTY
W
SciTegic.value.DoubleValue
-2.088

@<SCITEGIC>MOL_PROPERTY
W(PB)
SciTegic.value.DoubleValue
-4.098

@<SCITEGIC>MOL_PROPERTY
W(SA)
SciTegic.value.DoubleValue
2.010

@<SCITEGIC>MOL_PROPERTY
Valence
SciTegic.value.DoubleValue
12.390

@<SCITEGIC>MOL_PROPERTY
Coulomb
SciTegic.value.DoubleValue
-9.270

@<SCITEGIC>MOL_PROPERTY
VdW
SciTegic.value.DoubleValue
2.216

@<SCITEGIC>MOL_PROPERTY
VdW6
SciTegic.value.DoubleValue
-8.967

@<SCITEGIC>MOL_PROPERTY
VdW12
SciTegic.value.DoubleValue
11.183

@<SCITEGIC>MOL_PROPERTY
Bond
SciTegic.value.DoubleValue
0.218

@<SCITEGIC>MOL_PROPERTY
Angle
SciTegic.value.DoubleValue
2.426

@<SCITEGIC>MOL_PROPERTY
Pdih
SciTegic.value.DoubleValue
9.745

@<SCITEGIC>MOL_PROPERTY
Idih
SciTegic.value.DoubleValue
0.000

@<SCITEGIC>MOL_PROPERTY
Tether
SciTegic.value.DoubleValue
0.000

@<TRIPOS>MOLECULE
guest-5_confgen4.mol2 : confsearch ligand conformer 460
          22          22           1
SMALL
USER_CHARGES
 
@<TRIPOS>ATOM
       1    C1      21.829812   19.843982   23.265553 C.3        1 MOL1        -0.1685
       2    H1      22.304579   20.807069   23.497587 H          1 MOL1         0.0832
       3    H2      22.573025   19.076193   23.520403 H          1 MOL1         0.0832
       4    C2      21.557862   19.792826   21.743022 C.3        1 MOL1        -0.1685
       5    H3      21.270346   20.791785   21.388205 H          1 MOL1         0.0832
       6    H4      22.505189   19.562836   21.236602 H          1 MOL1         0.0832
       7    C3      20.490556   18.763767   21.303204 C.3        1 MOL1        -0.1685
       8    H5      20.555593   17.847354   21.905528 H          1 MOL1         0.0832
       9    H6      20.710406   18.465090   20.269401 H          1 MOL1         0.0832
      10    C4      19.052572   19.341227   21.331865 C.3        1 MOL1        -0.1761
      11    H7      19.034487   20.291684   20.783398 H          1 MOL1         0.0832
      12    H8      18.392563   18.665454   20.772282 H          1 MOL1         0.0832
      13    C5      18.432903   19.561946   22.730576 C.3        1 MOL1         0.1218
      14    H9      17.506711   20.135203   22.580106 H          1 MOL1         0.0789
      15    C6      19.311246   20.366837   23.721107 C.3        1 MOL1        -0.1761
      16    H10     19.560645   21.344044   23.287813 H          1 MOL1         0.0832
      17    H11     18.698962   20.583193   24.606028 H          1 MOL1         0.0832
      18    C7      20.603801   19.648897   24.189167 C.3        1 MOL1        -0.1685
      19    H12     20.871951   20.019092   25.187904 H          1 MOL1         0.0832
      20    H13     20.412721   18.575526   24.318799 H          1 MOL1         0.0832
      21    O1      18.087334   18.301245   23.295587 O.3        1 MOL1        -0.5509
      22    H14     17.748956   18.482560   24.196091 H          1 MOL1         0.3779
@<TRIPOS>BOND
    1     1     2    1
    2     1     3    1
    3     1     4    1
    4     4     5    1
    5     4     6    1
    6     4     7    1
    7     7     8    1
    8     7     9    1
    9     7    10    1
   10    10    11    1
   11    10    12    1
   12    10    13    1
   13    13    14    1
   14    13    15    1
   15    15    16    1
   16    15    17    1
   17     1    18    1
   18    15    18    1
   19    18    19    1
   20    18    20    1
   21    13    21    1
   22    21    22    1
@<TRIPOS>SUBSTRUCTURE
       1 MOL1            1 RESIDUE      1      MOL     
@<SCITEGIC>MOL_PROPERTY
VConf Rank
SciTegic.value.IntegerValue
460

@<SCITEGIC>MOL_PROPERTY
Conf_Id
SciTegic.value.IntegerValue
95

@<SCITEGIC>MOL_PROPERTY
Delta U+W
SciTegic.value.DoubleValue
-2.289

@<SCITEGIC>MOL_PROPERTY
U+W
SciTegic.value.DoubleValue
4.134

@<SCITEGIC>MOL_PROPERTY
Grad RMS
SciTegic.value.DoubleValue
0.000000

@<SCITEGIC>MOL_PROPERTY
U
SciTegic.value.DoubleValue
6.373

@<SCITEGIC>MOL_PROPERTY
W
SciTegic.value.DoubleValue
-2.240

@<SCITEGIC>MOL_PROPERTY
W(PB)
SciTegic.value.DoubleValue
-4.254

@<SCITEGIC>MOL_PROPERTY
W(SA)
SciTegic.value.DoubleValue
2.015

@<SCITEGIC>MOL_PROPERTY
Valence
SciTegic.value.DoubleValue
12.093

@<SCITEGIC>MOL_PROPERTY
Coulomb
SciTegic.value.DoubleValue
-8.058

@<SCITEGIC>MOL_PROPERTY
VdW
SciTegic.value.DoubleValue
2.339

@<SCITEGIC>MOL_PROPERTY
VdW6
SciTegic.value.DoubleValue
-9.683

@<SCITEGIC>MOL_PROPERTY
VdW12
SciTegic.value.DoubleValue
12.022

@<SCITEGIC>MOL_PROPERTY
Bond
SciTegic.value.DoubleValue
0.268

@<SCITEGIC>MOL_PROPERTY
Angle
SciTegic.value.DoubleValue
3.005

@<SCITEGIC>MOL_PROPERTY
Pdih
SciTegic.value.DoubleValue
8.820

@<SCITEGIC>MOL_PROPERTY
Idih
SciTegic.value.DoubleValue
0.000

@<SCITEGIC>MOL_PROPERTY
Tether
SciTegic.value.DoubleValue
0.000

@<TRIPOS>MOLECULE
guest-5_confgen4.mol2 : confsearch ligand conformer 461
          22          22           1
SMALL
USER_CHARGES
 
@<TRIPOS>ATOM
       1    C1      21.446939   20.926269   22.766164 C.3        1 MOL1        -0.1685
       2    H1      22.467152   20.801426   23.153892 H          1 MOL1         0.0832
       3    H2      21.400253   21.951782   22.375096 H          1 MOL1         0.0832
       4    C2      20.459777   20.796406   23.950637 C.3        1 MOL1        -0.1685
       5    H3      20.832044   20.041272   24.656094 H          1 MOL1         0.0832
       6    H4      20.468178   21.744868   24.504846 H          1 MOL1         0.0832
       7    C3      19.003257   20.458447   23.555858 C.3        1 MOL1        -0.1685
       8    H5      18.717850   20.972916   22.628127 H          1 MOL1         0.0832
       9    H6      18.339120   20.849801   24.338283 H          1 MOL1         0.0832
      10    C4      18.753206   18.933271   23.443518 C.3        1 MOL1        -0.1761
      11    H7      19.127496   18.440444   24.350119 H          1 MOL1         0.0832
      12    H8      17.670159   18.754424   23.441179 H          1 MOL1         0.0832
      13    C5      19.365526   18.230770   22.210111 C.3        1 MOL1         0.1218
      14    H9      19.250607   17.149111   22.371070 H          1 MOL1         0.0789
      15    C6      20.874489   18.498234   21.982456 C.3        1 MOL1        -0.1761
      16    H10     21.446094   18.199080   22.870298 H          1 MOL1         0.0832
      17    H11     21.203781   17.831407   21.175153 H          1 MOL1         0.0832
      18    C7      21.233439   19.953035   21.582269 C.3        1 MOL1        -0.1685
      19    H12     22.156727   19.937492   20.987699 H          1 MOL1         0.0832
      20    H13     20.463548   20.356280   20.911238 H          1 MOL1         0.0832
      21    O1      18.624378   18.587395   21.047179 O.3        1 MOL1        -0.5509
      22    H14     17.682316   18.415684   21.250205 H          1 MOL1         0.3779
@<TRIPOS>BOND
    1     1     2    1
    2     1     3    1
    3     1     4    1
    4     4     5    1
    5     4     6    1
    6     4     7    1
    7     7     8    1
    8     7     9    1
    9     7    10    1
   10    10    11    1
   11    10    12    1
   12    10    13    1
   13    13    14    1
   14    13    15    1
   15    15    16    1
   16    15    17    1
   17     1    18    1
   18    15    18    1
   19    18    19    1
   20    18    20    1
   21    13    21    1
   22    21    22    1
@<TRIPOS>SUBSTRUCTURE
       1 MOL1            1 RESIDUE      1      MOL     
@<SCITEGIC>MOL_PROPERTY
VConf Rank
SciTegic.value.IntegerValue
461

@<SCITEGIC>MOL_PROPERTY
Conf_Id
SciTegic.value.IntegerValue
41

@<SCITEGIC>MOL_PROPERTY
Delta U+W
SciTegic.value.DoubleValue
-2.114

@<SCITEGIC>MOL_PROPERTY
U+W
SciTegic.value.DoubleValue
4.310

@<SCITEGIC>MOL_PROPERTY
Grad RMS
SciTegic.value.DoubleValue
0.000000

@<SCITEGIC>MOL_PROPERTY
U
SciTegic.value.DoubleValue
6.598

@<SCITEGIC>MOL_PROPERTY
W
SciTegic.value.DoubleValue
-2.289

@<SCITEGIC>MOL_PROPERTY
W(PB)
SciTegic.value.DoubleValue
-4.294

@<SCITEGIC>MOL_PROPERTY
W(SA)
SciTegic.value.DoubleValue
2.005

@<SCITEGIC>MOL_PROPERTY
Valence
SciTegic.value.DoubleValue
12.082

@<SCITEGIC>MOL_PROPERTY
Coulomb
SciTegic.value.DoubleValue
-7.801

@<SCITEGIC>MOL_PROPERTY
VdW
SciTegic.value.DoubleValue
2.317

@<SCITEGIC>MOL_PROPERTY
VdW6
SciTegic.value.DoubleValue
-9.658

@<SCITEGIC>MOL_PROPERTY
VdW12
SciTegic.value.DoubleValue
11.975

@<SCITEGIC>MOL_PROPERTY
Bond
SciTegic.value.DoubleValue
0.267

@<SCITEGIC>MOL_PROPERTY
Angle
SciTegic.value.DoubleValue
3.051

@<SCITEGIC>MOL_PROPERTY
Pdih
SciTegic.value.DoubleValue
8.764

@<SCITEGIC>MOL_PROPERTY
Idih
SciTegic.value.DoubleValue
0.000

@<SCITEGIC>MOL_PROPERTY
Tether
SciTegic.value.DoubleValue
0.000

@<TRIPOS>MOLECULE
guest-5_confgen4.mol2 : confsearch ligand conformer 462
          22          22           1
SMALL
USER_CHARGES
 
@<TRIPOS>ATOM
       1    C1      18.952822   18.789233   23.680847 C.3        1 MOL1        -0.1685
       2    H1      18.069036   18.513816   24.272131 H          1 MOL1         0.0832
       3    H2      19.487877   17.852571   23.472144 H          1 MOL1         0.0832
       4    C2      19.821642   19.735155   24.539783 C.3        1 MOL1        -0.1685
       5    H3      19.294775   20.688086   24.684403 H          1 MOL1         0.0832
       6    H4      19.932286   19.297287   25.541077 H          1 MOL1         0.0832
       7    C3      21.232100   20.007131   23.972459 C.3        1 MOL1        -0.1685
       8    H5      21.831163   19.088394   24.026639 H          1 MOL1         0.0832
       9    H6      21.732019   20.723666   24.637879 H          1 MOL1         0.0832
      10    C4      21.263866   20.577445   22.528534 C.3        1 MOL1        -0.1761
      11    H7      20.604033   21.451128   22.454000 H          1 MOL1         0.0832
      12    H8      22.277543   20.955050   22.342907 H          1 MOL1         0.0832
      13    C5      20.936267   19.572383   21.394267 C.3        1 MOL1         0.1218
      14    H9      21.304977   20.020155   20.460014 H          1 MOL1         0.0789
      15    C6      19.431097   19.276696   21.165854 C.3        1 MOL1        -0.1761
      16    H10     19.074663   19.935010   20.362959 H          1 MOL1         0.0832
      17    H11     19.322449   18.257527   20.772204 H          1 MOL1         0.0832
      18    C7      18.471149   19.447781   22.369236 C.3        1 MOL1        -0.1685
      19    H12     18.273188   20.514620   22.539760 H          1 MOL1         0.0832
      20    H13     17.502961   19.009609   22.091212 H          1 MOL1         0.0832
      21    O1      21.640471   18.349507   21.593246 O.3        1 MOL1        -0.5509
      22    H14     21.427504   17.773381   20.831253 H          1 MOL1         0.3779
@<TRIPOS>BOND
    1     1     2    1
    2     1     3    1
    3     1     4    1
    4     4     5    1
    5     4     6    1
    6     4     7    1
    7     7     8    1
    8     7     9    1
    9     7    10    1
   10    10    11    1
   11    10    12    1
   12    10    13    1
   13    13    14    1
   14    13    15    1
   15    15    16    1
   16    15    17    1
   17     1    18    1
   18    15    18    1
   19    18    19    1
   20    18    20    1
   21    13    21    1
   22    21    22    1
@<TRIPOS>SUBSTRUCTURE
       1 MOL1            1 RESIDUE      1      MOL     
@<SCITEGIC>MOL_PROPERTY
VConf Rank
SciTegic.value.IntegerValue
462

@<SCITEGIC>MOL_PROPERTY
Conf_Id
SciTegic.value.IntegerValue
104

@<SCITEGIC>MOL_PROPERTY
Delta U+W
SciTegic.value.DoubleValue
-1.172

@<SCITEGIC>MOL_PROPERTY
U+W
SciTegic.value.DoubleValue
5.252

@<SCITEGIC>MOL_PROPERTY
Grad RMS
SciTegic.value.DoubleValue
0.000000

@<SCITEGIC>MOL_PROPERTY
U
SciTegic.value.DoubleValue
7.482

@<SCITEGIC>MOL_PROPERTY
W
SciTegic.value.DoubleValue
-2.230

@<SCITEGIC>MOL_PROPERTY
W(PB)
SciTegic.value.DoubleValue
-4.220

@<SCITEGIC>MOL_PROPERTY
W(SA)
SciTegic.value.DoubleValue
1.990

@<SCITEGIC>MOL_PROPERTY
Valence
SciTegic.value.DoubleValue
12.309

@<SCITEGIC>MOL_PROPERTY
Coulomb
SciTegic.value.DoubleValue
-7.084

@<SCITEGIC>MOL_PROPERTY
VdW
SciTegic.value.DoubleValue
2.258

@<SCITEGIC>MOL_PROPERTY
VdW6
SciTegic.value.DoubleValue
-9.770

@<SCITEGIC>MOL_PROPERTY
VdW12
SciTegic.value.DoubleValue
12.028

@<SCITEGIC>MOL_PROPERTY
Bond
SciTegic.value.DoubleValue
0.284

@<SCITEGIC>MOL_PROPERTY
Angle
SciTegic.value.DoubleValue
3.491

@<SCITEGIC>MOL_PROPERTY
Pdih
SciTegic.value.DoubleValue
8.535

@<SCITEGIC>MOL_PROPERTY
Idih
SciTegic.value.DoubleValue
0.000

@<SCITEGIC>MOL_PROPERTY
Tether
SciTegic.value.DoubleValue
0.000

@<TRIPOS>MOLECULE
guest-5_confgen4.mol2 : confsearch ligand conformer 463
          22          22           1
SMALL
USER_CHARGES
 
@<TRIPOS>ATOM
       1    C1      20.605421   18.215429   23.396729 C.3        1 MOL1        -0.1685
       2    H1      20.900372   17.751512   22.445798 H          1 MOL1         0.0832
       3    H2      20.832502   17.476019   24.176886 H          1 MOL1         0.0832
       4    C2      19.083897   18.486185   23.430510 C.3        1 MOL1        -0.1685
       5    H3      18.565931   17.546170   23.665736 H          1 MOL1         0.0832
       6    H4      18.852193   19.155544   24.269324 H          1 MOL1         0.0832
       7    C3      18.472434   19.047077   22.121622 C.3        1 MOL1        -0.1685
       8    H5      17.560168   19.604665   22.374963 H          1 MOL1         0.0832
       9    H6      18.135462   18.202117   21.505649 H          1 MOL1         0.0832
      10    C4      19.384242   19.937875   21.234893 C.3        1 MOL1        -0.1761
      11    H7      20.061744   19.295360   20.657726 H          1 MOL1         0.0832
      12    H8      18.750766   20.432772   20.487373 H          1 MOL1         0.0832
      13    C5      20.219776   21.023613   21.951158 C.3        1 MOL1         0.1218
      14    H9      20.475812   21.786450   21.201887 H          1 MOL1         0.0789
      15    C6      21.554380   20.481791   22.511097 C.3        1 MOL1        -0.1761
      16    H10     22.116536   20.016325   21.691107 H          1 MOL1         0.0832
      17    H11     22.160917   21.336839   22.837055 H          1 MOL1         0.0832
      18    C7      21.454374   19.476456   23.685018 C.3        1 MOL1        -0.1685
      19    H12     22.473351   19.155182   23.940323 H          1 MOL1         0.0832
      20    H13     21.072802   19.985924   24.580185 H          1 MOL1         0.0832
      21    O1      19.464568   21.630669   22.988130 O.3        1 MOL1        -0.5509
      22    H14     19.206061   20.883548   23.563692 H          1 MOL1         0.3779
@<TRIPOS>BOND
    1     1     2    1
    2     1     3    1
    3     1     4    1
    4     4     5    1
    5     4     6    1
    6     4     7    1
    7     7     8    1
    8     7     9    1
    9     7    10    1
   10    10    11    1
   11    10    12    1
   12    10    13    1
   13    13    14    1
   14    13    15    1
   15    15    16    1
   16    15    17    1
   17     1    18    1
   18    15    18    1
   19    18    19    1
   20    18    20    1
   21    13    21    1
   22    21    22    1
@<TRIPOS>SUBSTRUCTURE
       1 MOL1            1 RESIDUE      1      MOL     
@<SCITEGIC>MOL_PROPERTY
VConf Rank
SciTegic.value.IntegerValue
463

@<SCITEGIC>MOL_PROPERTY
Conf_Id
SciTegic.value.IntegerValue
99

@<SCITEGIC>MOL_PROPERTY
Delta U+W
SciTegic.value.DoubleValue
-3.852

@<SCITEGIC>MOL_PROPERTY
U+W
SciTegic.value.DoubleValue
2.572

@<SCITEGIC>MOL_PROPERTY
Grad RMS
SciTegic.value.DoubleValue
0.000000

@<SCITEGIC>MOL_PROPERTY
U
SciTegic.value.DoubleValue
3.922

@<SCITEGIC>MOL_PROPERTY
W
SciTegic.value.DoubleValue
-1.350

@<SCITEGIC>MOL_PROPERTY
W(PB)
SciTegic.value.DoubleValue
-3.345

@<SCITEGIC>MOL_PROPERTY
W(SA)
SciTegic.value.DoubleValue
1.995

@<SCITEGIC>MOL_PROPERTY
Valence
SciTegic.value.DoubleValue
12.571

@<SCITEGIC>MOL_PROPERTY
Coulomb
SciTegic.value.DoubleValue
-10.581

@<SCITEGIC>MOL_PROPERTY
VdW
SciTegic.value.DoubleValue
1.932

@<SCITEGIC>MOL_PROPERTY
VdW6
SciTegic.value.DoubleValue
-10.483

@<SCITEGIC>MOL_PROPERTY
VdW12
SciTegic.value.DoubleValue
12.415

@<SCITEGIC>MOL_PROPERTY
Bond
SciTegic.value.DoubleValue
0.268

@<SCITEGIC>MOL_PROPERTY
Angle
SciTegic.value.DoubleValue
3.728

@<SCITEGIC>MOL_PROPERTY
Pdih
SciTegic.value.DoubleValue
8.575

@<SCITEGIC>MOL_PROPERTY
Idih
SciTegic.value.DoubleValue
0.000

@<SCITEGIC>MOL_PROPERTY
Tether
SciTegic.value.DoubleValue
0.000

@<TRIPOS>MOLECULE
guest-5_confgen4.mol2 : confsearch ligand conformer 464
          22          22           1
SMALL
USER_CHARGES
 
@<TRIPOS>ATOM
       1    C1      21.034400   18.484379   23.471267 C.3        1 MOL1        -0.1685
       2    H1      21.735414   17.638307   23.477025 H          1 MOL1         0.0832
       3    H2      20.904492   18.751544   24.528528 H          1 MOL1         0.0832
       4    C2      19.686321   17.983356   22.875019 C.3        1 MOL1        -0.1685
       5    H3      19.803795   16.920387   22.622855 H          1 MOL1         0.0832
       6    H4      18.901067   18.007110   23.642393 H          1 MOL1         0.0832
       7    C3      19.191477   18.718455   21.603206 C.3        1 MOL1        -0.1685
       8    H5      18.350995   18.151473   21.180301 H          1 MOL1         0.0832
       9    H6      19.967100   18.680679   20.828253 H          1 MOL1         0.0832
      10    C4      18.721586   20.186015   21.803955 C.3        1 MOL1        -0.1761
      11    H7      18.779329   20.700061   20.835882 H          1 MOL1         0.0832
      12    H8      17.654654   20.176035   22.063861 H          1 MOL1         0.0832
      13    C5      19.451257   21.050032   22.861884 C.3        1 MOL1         0.1218
      14    H9      19.138056   22.090700   22.695484 H          1 MOL1         0.0789
      15    C6      20.998938   21.032540   22.811653 C.3        1 MOL1        -0.1761
      16    H10     21.325866   21.646829   21.962825 H          1 MOL1         0.0832
      17    H11     21.364805   21.554925   23.705662 H          1 MOL1         0.0832
      18    C7      21.715331   19.656634   22.719663 C.3        1 MOL1        -0.1685
      19    H12     21.862895   19.385611   21.666886 H          1 MOL1         0.0832
      20    H13     22.731647   19.779752   23.117997 H          1 MOL1         0.0832
      21    O1      19.012904   20.683374   24.160596 O.3        1 MOL1        -0.5509
      22    H14     19.313541   19.757702   24.258992 H          1 MOL1         0.3779
@<TRIPOS>BOND
    1     1     2    1
    2     1     3    1
    3     1     4    1
    4     4     5    1
    5     4     6    1
    6     4     7    1
    7     7     8    1
    8     7     9    1
    9     7    10    1
   10    10    11    1
   11    10    12    1
   12    10    13    1
   13    13    14    1
   14    13    15    1
   15    15    16    1
   16    15    17    1
   17     1    18    1
   18    15    18    1
   19    18    19    1
   20    18    20    1
   21    13    21    1
   22    21    22    1
@<TRIPOS>SUBSTRUCTURE
       1 MOL1            1 RESIDUE      1      MOL     
@<SCITEGIC>MOL_PROPERTY
VConf Rank
SciTegic.value.IntegerValue
464

@<SCITEGIC>MOL_PROPERTY
Conf_Id
SciTegic.value.IntegerValue
98

@<SCITEGIC>MOL_PROPERTY
Delta U+W
SciTegic.value.DoubleValue
0.930

@<SCITEGIC>MOL_PROPERTY
U+W
SciTegic.value.DoubleValue
7.353

@<SCITEGIC>MOL_PROPERTY
Grad RMS
SciTegic.value.DoubleValue
0.000000

@<SCITEGIC>MOL_PROPERTY
U
SciTegic.value.DoubleValue
8.455

@<SCITEGIC>MOL_PROPERTY
W
SciTegic.value.DoubleValue
-1.102

@<SCITEGIC>MOL_PROPERTY
W(PB)
SciTegic.value.DoubleValue
-3.101

@<SCITEGIC>MOL_PROPERTY
W(SA)
SciTegic.value.DoubleValue
2.000

@<SCITEGIC>MOL_PROPERTY
Valence
SciTegic.value.DoubleValue
15.601

@<SCITEGIC>MOL_PROPERTY
Coulomb
SciTegic.value.DoubleValue
-10.573

@<SCITEGIC>MOL_PROPERTY
VdW
SciTegic.value.DoubleValue
3.427

@<SCITEGIC>MOL_PROPERTY
VdW6
SciTegic.value.DoubleValue
-11.360

@<SCITEGIC>MOL_PROPERTY
VdW12
SciTegic.value.DoubleValue
14.787

@<SCITEGIC>MOL_PROPERTY
Bond
SciTegic.value.DoubleValue
0.471

@<SCITEGIC>MOL_PROPERTY
Angle
SciTegic.value.DoubleValue
5.445

@<SCITEGIC>MOL_PROPERTY
Pdih
SciTegic.value.DoubleValue
9.685

@<SCITEGIC>MOL_PROPERTY
Idih
SciTegic.value.DoubleValue
0.000

@<SCITEGIC>MOL_PROPERTY
Tether
SciTegic.value.DoubleValue
0.000

@<TRIPOS>MOLECULE
guest-5_confgen4.mol2 : confsearch ligand conformer 465
          22          22           1
SMALL
USER_CHARGES
 
@<TRIPOS>ATOM
       1    C1      21.487703   20.170320   23.273458 C.3        1 MOL1        -0.1685
       2    H1      21.022103   21.162668   23.216511 H          1 MOL1         0.0832
       3    H2      22.476748   20.344547   23.718595 H          1 MOL1         0.0832
       4    C2      21.682929   19.600473   21.845410 C.3        1 MOL1        -0.1685
       5    H3      22.319353   20.304848   21.292511 H          1 MOL1         0.0832
       6    H4      22.253056   18.663043   21.898351 H          1 MOL1         0.0832
       7    C3      20.389311   19.365241   21.017241 C.3        1 MOL1        -0.1685
       8    H5      20.144013   18.295439   20.998099 H          1 MOL1         0.0832
       9    H6      20.600290   19.625618   19.971140 H          1 MOL1         0.0832
      10    C4      19.150712   20.171494   21.490039 C.3        1 MOL1        -0.1761
      11    H7      19.420186   21.232082   21.568537 H          1 MOL1         0.0832
      12    H8      18.390606   20.131927   20.698167 H          1 MOL1         0.0832
      13    C5      18.507603   19.706885   22.829599 C.3        1 MOL1         0.1218
      14    H9      18.317537   20.600180   23.441944 H          1 MOL1         0.0789
      15    C6      19.343926   18.712090   23.672929 C.3        1 MOL1        -0.1761
      16    H10     18.738232   18.368777   24.521650 H          1 MOL1         0.0832
      17    H11     19.547526   17.809475   23.084353 H          1 MOL1         0.0832
      18    C7      20.674100   19.272700   24.235211 C.3        1 MOL1        -0.1685
      19    H12     20.459892   19.851770   25.143840 H          1 MOL1         0.0832
      20    H13     21.299628   18.428719   24.556276 H          1 MOL1         0.0832
      21    O1      17.264232   19.078793   22.538553 O.3        1 MOL1        -0.5509
      22    H14     16.855568   18.848713   23.398923 H          1 MOL1         0.3779
@<TRIPOS>BOND
    1     1     2    1
    2     1     3    1
    3     1     4    1
    4     4     5    1
    5     4     6    1
    6     4     7    1
    7     7     8    1
    8     7     9    1
    9     7    10    1
   10    10    11    1
   11    10    12    1
   12    10    13    1
   13    13    14    1
   14    13    15    1
   15    15    16    1
   16    15    17    1
   17     1    18    1
   18    15    18    1
   19    18    19    1
   20    18    20    1
   21    13    21    1
   22    21    22    1
@<TRIPOS>SUBSTRUCTURE
       1 MOL1            1 RESIDUE      1      MOL     
@<SCITEGIC>MOL_PROPERTY
VConf Rank
SciTegic.value.IntegerValue
465

@<SCITEGIC>MOL_PROPERTY
Conf_Id
SciTegic.value.IntegerValue
141

@<SCITEGIC>MOL_PROPERTY
Delta U+W
SciTegic.value.DoubleValue
0.000

@<SCITEGIC>MOL_PROPERTY
U+W
SciTegic.value.DoubleValue
6.423

@<SCITEGIC>MOL_PROPERTY
Grad RMS
SciTegic.value.DoubleValue
0.000000

@<SCITEGIC>MOL_PROPERTY
U
SciTegic.value.DoubleValue
8.781

@<SCITEGIC>MOL_PROPERTY
W
SciTegic.value.DoubleValue
-2.358

@<SCITEGIC>MOL_PROPERTY
W(PB)
SciTegic.value.DoubleValue
-4.373

@<SCITEGIC>MOL_PROPERTY
W(SA)
SciTegic.value.DoubleValue
2.015

@<SCITEGIC>MOL_PROPERTY
Valence
SciTegic.value.DoubleValue
13.328

@<SCITEGIC>MOL_PROPERTY
Coulomb
SciTegic.value.DoubleValue
-8.387

@<SCITEGIC>MOL_PROPERTY
VdW
SciTegic.value.DoubleValue
3.840

@<SCITEGIC>MOL_PROPERTY
VdW6
SciTegic.value.DoubleValue
-9.744

@<SCITEGIC>MOL_PROPERTY
VdW12
SciTegic.value.DoubleValue
13.584

@<SCITEGIC>MOL_PROPERTY
Bond
SciTegic.value.DoubleValue
0.436

@<SCITEGIC>MOL_PROPERTY
Angle
SciTegic.value.DoubleValue
3.478

@<SCITEGIC>MOL_PROPERTY
Pdih
SciTegic.value.DoubleValue
9.415

@<SCITEGIC>MOL_PROPERTY
Idih
SciTegic.value.DoubleValue
0.000

@<SCITEGIC>MOL_PROPERTY
Tether
SciTegic.value.DoubleValue
0.000

@<TRIPOS>MOLECULE
guest-5_confgen4.mol2 : confsearch ligand conformer 466
          22          22           1
SMALL
USER_CHARGES
 
@<TRIPOS>ATOM
       1    C1      19.526333   18.089031   23.389250 C.3        1 MOL1        -0.1685
       2    H1      18.746694   18.620649   23.951526 H          1 MOL1         0.0832
       3    H2      19.414331   17.026572   23.645261 H          1 MOL1         0.0832
       4    C2      20.937400   18.535086   23.842658 C.3        1 MOL1        -0.1685
       5    H3      21.105414   18.176234   24.867281 H          1 MOL1         0.0832
       6    H4      21.694107   18.034392   23.223320 H          1 MOL1         0.0832
       7    C3      21.185745   20.060902   23.819411 C.3        1 MOL1        -0.1685
       8    H5      22.233929   20.241433   24.094266 H          1 MOL1         0.0832
       9    H6      20.583656   20.540547   24.603241 H          1 MOL1         0.0832
      10    C4      20.905659   20.748535   22.460775 C.3        1 MOL1        -0.1761
      11    H7      21.332959   21.758918   22.505798 H          1 MOL1         0.0832
      12    H8      21.431890   20.230275   21.648688 H          1 MOL1         0.0832
      13    C5      19.396605   20.855564   22.146247 C.3        1 MOL1         0.1218
      14    H9      18.855402   20.981589   23.094962 H          1 MOL1         0.0789
      15    C6      18.805938   19.631563   21.409884 C.3        1 MOL1        -0.1761
      16    H10     17.715273   19.668608   21.527900 H          1 MOL1         0.0832
      17    H11     18.995334   19.729406   20.332542 H          1 MOL1         0.0832
      18    C7      19.308514   18.238729   21.865378 C.3        1 MOL1        -0.1685
      19    H12     18.577061   17.488985   21.534191 H          1 MOL1         0.0832
      20    H13     20.240170   17.993599   21.337516 H          1 MOL1         0.0832
      21    O1      19.177390   22.004707   21.337153 O.3        1 MOL1        -0.5509
      22    H14     19.489252   22.777184   21.853524 H          1 MOL1         0.3779
@<TRIPOS>BOND
    1     1     2    1
    2     1     3    1
    3     1     4    1
    4     4     5    1
    5     4     6    1
    6     4     7    1
    7     7     8    1
    8     7     9    1
    9     7    10    1
   10    10    11    1
   11    10    12    1
   12    10    13    1
   13    13    14    1
   14    13    15    1
   15    15    16    1
   16    15    17    1
   17     1    18    1
   18    15    18    1
   19    18    19    1
   20    18    20    1
   21    13    21    1
   22    21    22    1
@<TRIPOS>SUBSTRUCTURE
       1 MOL1            1 RESIDUE      1      MOL     
@<SCITEGIC>MOL_PROPERTY
VConf Rank
SciTegic.value.IntegerValue
466

@<SCITEGIC>MOL_PROPERTY
Conf_Id
SciTegic.value.IntegerValue
144

@<SCITEGIC>MOL_PROPERTY
Delta U+W
SciTegic.value.DoubleValue
-3.291

@<SCITEGIC>MOL_PROPERTY
U+W
SciTegic.value.DoubleValue
3.132

@<SCITEGIC>MOL_PROPERTY
Grad RMS
SciTegic.value.DoubleValue
0.000000

@<SCITEGIC>MOL_PROPERTY
U
SciTegic.value.DoubleValue
5.411

@<SCITEGIC>MOL_PROPERTY
W
SciTegic.value.DoubleValue
-2.279

@<SCITEGIC>MOL_PROPERTY
W(PB)
SciTegic.value.DoubleValue
-4.300

@<SCITEGIC>MOL_PROPERTY
W(SA)
SciTegic.value.DoubleValue
2.021

@<SCITEGIC>MOL_PROPERTY
Valence
SciTegic.value.DoubleValue
11.909

@<SCITEGIC>MOL_PROPERTY
Coulomb
SciTegic.value.DoubleValue
-8.733

@<SCITEGIC>MOL_PROPERTY
VdW
SciTegic.value.DoubleValue
2.236

@<SCITEGIC>MOL_PROPERTY
VdW6
SciTegic.value.DoubleValue
-8.936

@<SCITEGIC>MOL_PROPERTY
VdW12
SciTegic.value.DoubleValue
11.172

@<SCITEGIC>MOL_PROPERTY
Bond
SciTegic.value.DoubleValue
0.223

@<SCITEGIC>MOL_PROPERTY
Angle
SciTegic.value.DoubleValue
2.457

@<SCITEGIC>MOL_PROPERTY
Pdih
SciTegic.value.DoubleValue
9.228

@<SCITEGIC>MOL_PROPERTY
Idih
SciTegic.value.DoubleValue
0.000

@<SCITEGIC>MOL_PROPERTY
Tether
SciTegic.value.DoubleValue
0.000

@<TRIPOS>MOLECULE
guest-5_confgen4.mol2 : confsearch ligand conformer 467
          22          22           1
SMALL
USER_CHARGES
 
@<TRIPOS>ATOM
       1    C1      21.506190   18.858442   22.394115 C.3        1 MOL1        -0.1685
       2    H1      22.588192   18.689257   22.307293 H          1 MOL1         0.0832
       3    H2      21.027910   17.902120   22.142366 H          1 MOL1         0.0832
       4    C2      21.110765   19.956417   21.379144 C.3        1 MOL1        -0.1685
       5    H3      21.316873   20.945112   21.811319 H          1 MOL1         0.0832
       6    H4      21.764522   19.879341   20.499565 H          1 MOL1         0.0832
       7    C3      19.643664   19.899491   20.888942 C.3        1 MOL1        -0.1685
       8    H5      19.569608   19.175317   20.066140 H          1 MOL1         0.0832
       9    H6      19.390961   20.874954   20.451184 H          1 MOL1         0.0832
      10    C4      18.578390   19.532634   21.951367 C.3        1 MOL1        -0.1761
      11    H7      17.598978   19.849575   21.568263 H          1 MOL1         0.0832
      12    H8      18.522578   18.440263   22.043593 H          1 MOL1         0.0832
      13    C5      18.810775   20.151967   23.347798 C.3        1 MOL1         0.1218
      14    H9      19.262069   21.148361   23.238245 H          1 MOL1         0.0789
      15    C6      19.710191   19.271056   24.244471 C.3        1 MOL1        -0.1761
      16    H10     19.629610   19.626347   25.280525 H          1 MOL1         0.0832
      17    H11     19.329351   18.241472   24.246454 H          1 MOL1         0.0832
      18    C7      21.208666   19.256764   23.859656 C.3        1 MOL1        -0.1685
      19    H12     21.646841   20.242878   24.065828 H          1 MOL1         0.0832
      20    H13     21.727252   18.553847   24.525812 H          1 MOL1         0.0832
      21    O1      17.550998   20.286886   23.991980 O.3        1 MOL1        -0.5509
      22    H14     17.181688   19.383127   24.069368 H          1 MOL1         0.3779
@<TRIPOS>BOND
    1     1     2    1
    2     1     3    1
    3     1     4    1
    4     4     5    1
    5     4     6    1
    6     4     7    1
    7     7     8    1
    8     7     9    1
    9     7    10    1
   10    10    11    1
   11    10    12    1
   12    10    13    1
   13    13    14    1
   14    13    15    1
   15    15    16    1
   16    15    17    1
   17     1    18    1
   18    15    18    1
   19    18    19    1
   20    18    20    1
   21    13    21    1
   22    21    22    1
@<TRIPOS>SUBSTRUCTURE
       1 MOL1            1 RESIDUE      1      MOL     
@<SCITEGIC>MOL_PROPERTY
VConf Rank
SciTegic.value.IntegerValue
467

@<SCITEGIC>MOL_PROPERTY
Conf_Id
SciTegic.value.IntegerValue
76

@<SCITEGIC>MOL_PROPERTY
Delta U+W
SciTegic.value.DoubleValue
-3.175

@<SCITEGIC>MOL_PROPERTY
U+W
SciTegic.value.DoubleValue
3.248

@<SCITEGIC>MOL_PROPERTY
Grad RMS
SciTegic.value.DoubleValue
0.000000

@<SCITEGIC>MOL_PROPERTY
U
SciTegic.value.DoubleValue
5.336

@<SCITEGIC>MOL_PROPERTY
W
SciTegic.value.DoubleValue
-2.088

@<SCITEGIC>MOL_PROPERTY
W(PB)
SciTegic.value.DoubleValue
-4.098

@<SCITEGIC>MOL_PROPERTY
W(SA)
SciTegic.value.DoubleValue
2.010

@<SCITEGIC>MOL_PROPERTY
Valence
SciTegic.value.DoubleValue
12.390

@<SCITEGIC>MOL_PROPERTY
Coulomb
SciTegic.value.DoubleValue
-9.270

@<SCITEGIC>MOL_PROPERTY
VdW
SciTegic.value.DoubleValue
2.216

@<SCITEGIC>MOL_PROPERTY
VdW6
SciTegic.value.DoubleValue
-8.967

@<SCITEGIC>MOL_PROPERTY
VdW12
SciTegic.value.DoubleValue
11.183

@<SCITEGIC>MOL_PROPERTY
Bond
SciTegic.value.DoubleValue
0.218

@<SCITEGIC>MOL_PROPERTY
Angle
SciTegic.value.DoubleValue
2.426

@<SCITEGIC>MOL_PROPERTY
Pdih
SciTegic.value.DoubleValue
9.745

@<SCITEGIC>MOL_PROPERTY
Idih
SciTegic.value.DoubleValue
0.000

@<SCITEGIC>MOL_PROPERTY
Tether
SciTegic.value.DoubleValue
0.000

@<TRIPOS>MOLECULE
guest-5_confgen4.mol2 : confsearch ligand conformer 468
          22          22           1
SMALL
USER_CHARGES
 
@<TRIPOS>ATOM
       1    C1      20.389798   19.656050   24.532862 C.3        1 MOL1        -0.1685
       2    H1      19.940468   19.034648   25.319465 H          1 MOL1         0.0832
       3    H2      21.127757   20.292051   25.040538 H          1 MOL1         0.0832
       4    C2      19.281443   20.554382   23.933510 C.3        1 MOL1        -0.1685
       5    H3      18.336416   19.995733   23.897249 H          1 MOL1         0.0832
       6    H4      19.104642   21.385439   24.629835 H          1 MOL1         0.0832
       7    C3      19.592514   21.130586   22.532522 C.3        1 MOL1        -0.1685
       8    H5      20.655374   21.393222   22.442043 H          1 MOL1         0.0832
       9    H6      19.035721   22.070473   22.419010 H          1 MOL1         0.0832
      10    C4      19.159102   20.183799   21.384555 C.3        1 MOL1        -0.1761
      11    H7      18.115667   19.881531   21.540729 H          1 MOL1         0.0832
      12    H8      19.164441   20.749159   20.443411 H          1 MOL1         0.0832
      13    C5      20.019728   18.915767   21.183271 C.3        1 MOL1         0.1218
      14    H9      19.480597   18.276810   20.469009 H          1 MOL1         0.0789
      15    C6      20.258170   18.071413   22.460260 C.3        1 MOL1        -0.1761
      16    H10     19.295034   17.778045   22.897506 H          1 MOL1         0.0832
      17    H11     20.740868   17.134882   22.152529 H          1 MOL1         0.0832
      18    C7      21.147140   18.743927   23.538534 C.3        1 MOL1        -0.1685
      19    H12     21.653326   17.960375   24.118400 H          1 MOL1         0.0832
      20    H13     21.952067   19.316738   23.059555 H          1 MOL1         0.0832
      21    O1      21.265604   19.281520   20.598428 O.3        1 MOL1        -0.5509
      22    H14     21.796343   18.461260   20.537006 H          1 MOL1         0.3779
@<TRIPOS>BOND
    1     1     2    1
    2     1     3    1
    3     1     4    1
    4     4     5    1
    5     4     6    1
    6     4     7    1
    7     7     8    1
    8     7     9    1
    9     7    10    1
   10    10    11    1
   11    10    12    1
   12    10    13    1
   13    13    14    1
   14    13    15    1
   15    15    16    1
   16    15    17    1
   17     1    18    1
   18    15    18    1
   19    18    19    1
   20    18    20    1
   21    13    21    1
   22    21    22    1
@<TRIPOS>SUBSTRUCTURE
       1 MOL1            1 RESIDUE      1      MOL     
@<SCITEGIC>MOL_PROPERTY
VConf Rank
SciTegic.value.IntegerValue
468

@<SCITEGIC>MOL_PROPERTY
Conf_Id
SciTegic.value.IntegerValue
95

@<SCITEGIC>MOL_PROPERTY
Delta U+W
SciTegic.value.DoubleValue
-2.289

@<SCITEGIC>MOL_PROPERTY
U+W
SciTegic.value.DoubleValue
4.134

@<SCITEGIC>MOL_PROPERTY
Grad RMS
SciTegic.value.DoubleValue
0.000000

@<SCITEGIC>MOL_PROPERTY
U
SciTegic.value.DoubleValue
6.373

@<SCITEGIC>MOL_PROPERTY
W
SciTegic.value.DoubleValue
-2.240

@<SCITEGIC>MOL_PROPERTY
W(PB)
SciTegic.value.DoubleValue
-4.254

@<SCITEGIC>MOL_PROPERTY
W(SA)
SciTegic.value.DoubleValue
2.015

@<SCITEGIC>MOL_PROPERTY
Valence
SciTegic.value.DoubleValue
12.093

@<SCITEGIC>MOL_PROPERTY
Coulomb
SciTegic.value.DoubleValue
-8.058

@<SCITEGIC>MOL_PROPERTY
VdW
SciTegic.value.DoubleValue
2.339

@<SCITEGIC>MOL_PROPERTY
VdW6
SciTegic.value.DoubleValue
-9.683

@<SCITEGIC>MOL_PROPERTY
VdW12
SciTegic.value.DoubleValue
12.022

@<SCITEGIC>MOL_PROPERTY
Bond
SciTegic.value.DoubleValue
0.268

@<SCITEGIC>MOL_PROPERTY
Angle
SciTegic.value.DoubleValue
3.005

@<SCITEGIC>MOL_PROPERTY
Pdih
SciTegic.value.DoubleValue
8.820

@<SCITEGIC>MOL_PROPERTY
Idih
SciTegic.value.DoubleValue
0.000

@<SCITEGIC>MOL_PROPERTY
Tether
SciTegic.value.DoubleValue
0.000

@<TRIPOS>MOLECULE
guest-5_confgen4.mol2 : confsearch ligand conformer 469
          22          22           1
SMALL
USER_CHARGES
 
@<TRIPOS>ATOM
       1    C1      19.592912   21.231846   23.644300 C.3        1 MOL1        -0.1685
       2    H1      18.665811   21.457827   24.188516 H          1 MOL1         0.0832
       3    H2      20.239221   22.109816   23.779364 H          1 MOL1         0.0832
       4    C2      19.249774   21.088726   22.142267 C.3        1 MOL1        -0.1685
       5    H3      18.265029   20.614001   22.035528 H          1 MOL1         0.0832
       6    H4      19.136032   22.097562   21.722611 H          1 MOL1         0.0832
       7    C3      20.290155   20.310419   21.303600 C.3        1 MOL1        -0.1685
       8    H5      21.312257   20.536037   21.637099 H          1 MOL1         0.0832
       9    H6      20.223189   20.663321   20.265620 H          1 MOL1         0.0832
      10    C4      20.032594   18.782361   21.300426 C.3        1 MOL1        -0.1761
      11    H7      18.980963   18.596146   21.046865 H          1 MOL1         0.0832
      12    H8      20.612786   18.330349   20.485536 H          1 MOL1         0.0832
      13    C5      20.365873   18.031811   22.610134 C.3        1 MOL1         0.1218
      14    H9      19.967601   17.012574   22.502262 H          1 MOL1         0.0789
      15    C6      19.735114   18.632616   23.891348 C.3        1 MOL1        -0.1761
      16    H10     18.643579   18.677037   23.786145 H          1 MOL1         0.0832
      17    H11     19.928992   17.927202   24.709658 H          1 MOL1         0.0832
      18    C7      20.287451   20.020023   24.310236 C.3        1 MOL1        -0.1685
      19    H12     20.182810   20.127262   25.398247 H          1 MOL1         0.0832
      20    H13     21.367402   20.065561   24.117224 H          1 MOL1         0.0832
      21    O1      21.779905   17.942342   22.756429 O.3        1 MOL1        -0.5509
      22    H14     22.126887   17.574978   21.918077 H          1 MOL1         0.3779
@<TRIPOS>BOND
    1     1     2    1
    2     1     3    1
    3     1     4    1
    4     4     5    1
    5     4     6    1
    6     4     7    1
    7     7     8    1
    8     7     9    1
    9     7    10    1
   10    10    11    1
   11    10    12    1
   12    10    13    1
   13    13    14    1
   14    13    15    1
   15    15    16    1
   16    15    17    1
   17     1    18    1
   18    15    18    1
   19    18    19    1
   20    18    20    1
   21    13    21    1
   22    21    22    1
@<TRIPOS>SUBSTRUCTURE
       1 MOL1            1 RESIDUE      1      MOL     
@<SCITEGIC>MOL_PROPERTY
VConf Rank
SciTegic.value.IntegerValue
469

@<SCITEGIC>MOL_PROPERTY
Conf_Id
SciTegic.value.IntegerValue
41

@<SCITEGIC>MOL_PROPERTY
Delta U+W
SciTegic.value.DoubleValue
-2.114

@<SCITEGIC>MOL_PROPERTY
U+W
SciTegic.value.DoubleValue
4.310

@<SCITEGIC>MOL_PROPERTY
Grad RMS
SciTegic.value.DoubleValue
0.000000

@<SCITEGIC>MOL_PROPERTY
U
SciTegic.value.DoubleValue
6.598

@<SCITEGIC>MOL_PROPERTY
W
SciTegic.value.DoubleValue
-2.289

@<SCITEGIC>MOL_PROPERTY
W(PB)
SciTegic.value.DoubleValue
-4.294

@<SCITEGIC>MOL_PROPERTY
W(SA)
SciTegic.value.DoubleValue
2.005

@<SCITEGIC>MOL_PROPERTY
Valence
SciTegic.value.DoubleValue
12.082

@<SCITEGIC>MOL_PROPERTY
Coulomb
SciTegic.value.DoubleValue
-7.801

@<SCITEGIC>MOL_PROPERTY
VdW
SciTegic.value.DoubleValue
2.317

@<SCITEGIC>MOL_PROPERTY
VdW6
SciTegic.value.DoubleValue
-9.658

@<SCITEGIC>MOL_PROPERTY
VdW12
SciTegic.value.DoubleValue
11.975

@<SCITEGIC>MOL_PROPERTY
Bond
SciTegic.value.DoubleValue
0.267

@<SCITEGIC>MOL_PROPERTY
Angle
SciTegic.value.DoubleValue
3.051

@<SCITEGIC>MOL_PROPERTY
Pdih
SciTegic.value.DoubleValue
8.764

@<SCITEGIC>MOL_PROPERTY
Idih
SciTegic.value.DoubleValue
0.000

@<SCITEGIC>MOL_PROPERTY
Tether
SciTegic.value.DoubleValue
0.000

@<TRIPOS>MOLECULE
guest-5_confgen4.mol2 : confsearch ligand conformer 470
          22          22           1
SMALL
USER_CHARGES
 
@<TRIPOS>ATOM
       1    C1      19.168345   18.222519   22.262761 C.3        1 MOL1        -0.1685
       2    H1      18.495928   17.510590   21.765204 H          1 MOL1         0.0832
       3    H2      19.810540   17.627313   22.926456 H          1 MOL1         0.0832
       4    C2      18.298633   19.204011   23.079866 C.3        1 MOL1        -0.1685
       5    H3      17.711134   19.831403   22.395903 H          1 MOL1         0.0832
       6    H4      17.567573   18.625126   23.660387 H          1 MOL1         0.0832
       7    C3      19.087218   20.104380   24.055925 C.3        1 MOL1        -0.1685
       8    H5      19.501959   19.489788   24.865960 H          1 MOL1         0.0832
       9    H6      18.373963   20.785354   24.539318 H          1 MOL1         0.0832
      10    C4      20.211620   20.955738   23.406237 C.3        1 MOL1        -0.1761
      11    H7      19.814654   21.511683   22.547400 H          1 MOL1         0.0832
      12    H8      20.516121   21.716426   24.136455 H          1 MOL1         0.0832
      13    C5      21.490988   20.185705   22.988746 C.3        1 MOL1         0.1218
      14    H9      22.282443   20.937596   22.856325 H          1 MOL1         0.0789
      15    C6      21.406352   19.408527   21.649353 C.3        1 MOL1        -0.1761
      16    H10     21.819976   20.048915   20.859492 H          1 MOL1         0.0832
      17    H11     22.076625   18.540212   21.696617 H          1 MOL1         0.0832
      18    C7      20.010048   18.931315   21.178712 C.3        1 MOL1        -0.1685
      19    H12     19.446242   19.778304   20.765012 H          1 MOL1         0.0832
      20    H13     20.157536   18.238005   20.339518 H          1 MOL1         0.0832
      21    O1      21.903960   19.304130   24.029514 O.3        1 MOL1        -0.5509
      22    H14     22.732033   18.878593   23.727646 H          1 MOL1         0.3779
@<TRIPOS>BOND
    1     1     2    1
    2     1     3    1
    3     1     4    1
    4     4     5    1
    5     4     6    1
    6     4     7    1
    7     7     8    1
    8     7     9    1
    9     7    10    1
   10    10    11    1
   11    10    12    1
   12    10    13    1
   13    13    14    1
   14    13    15    1
   15    15    16    1
   16    15    17    1
   17     1    18    1
   18    15    18    1
   19    18    19    1
   20    18    20    1
   21    13    21    1
   22    21    22    1
@<TRIPOS>SUBSTRUCTURE
       1 MOL1            1 RESIDUE      1      MOL     
@<SCITEGIC>MOL_PROPERTY
VConf Rank
SciTegic.value.IntegerValue
470

@<SCITEGIC>MOL_PROPERTY
Conf_Id
SciTegic.value.IntegerValue
104

@<SCITEGIC>MOL_PROPERTY
Delta U+W
SciTegic.value.DoubleValue
-1.172

@<SCITEGIC>MOL_PROPERTY
U+W
SciTegic.value.DoubleValue
5.252

@<SCITEGIC>MOL_PROPERTY
Grad RMS
SciTegic.value.DoubleValue
0.000000

@<SCITEGIC>MOL_PROPERTY
U
SciTegic.value.DoubleValue
7.482

@<SCITEGIC>MOL_PROPERTY
W
SciTegic.value.DoubleValue
-2.230

@<SCITEGIC>MOL_PROPERTY
W(PB)
SciTegic.value.DoubleValue
-4.220

@<SCITEGIC>MOL_PROPERTY
W(SA)
SciTegic.value.DoubleValue
1.990

@<SCITEGIC>MOL_PROPERTY
Valence
SciTegic.value.DoubleValue
12.309

@<SCITEGIC>MOL_PROPERTY
Coulomb
SciTegic.value.DoubleValue
-7.084

@<SCITEGIC>MOL_PROPERTY
VdW
SciTegic.value.DoubleValue
2.258

@<SCITEGIC>MOL_PROPERTY
VdW6
SciTegic.value.DoubleValue
-9.770

@<SCITEGIC>MOL_PROPERTY
VdW12
SciTegic.value.DoubleValue
12.028

@<SCITEGIC>MOL_PROPERTY
Bond
SciTegic.value.DoubleValue
0.284

@<SCITEGIC>MOL_PROPERTY
Angle
SciTegic.value.DoubleValue
3.491

@<SCITEGIC>MOL_PROPERTY
Pdih
SciTegic.value.DoubleValue
8.535

@<SCITEGIC>MOL_PROPERTY
Idih
SciTegic.value.DoubleValue
0.000

@<SCITEGIC>MOL_PROPERTY
Tether
SciTegic.value.DoubleValue
0.000

@<TRIPOS>MOLECULE
guest-5_confgen4.mol2 : confsearch ligand conformer 471
          22          22           1
SMALL
USER_CHARGES
 
@<TRIPOS>ATOM
       1    C1      18.421927   19.487694   22.681438 C.3        1 MOL1        -0.1685
       2    H1      18.317492   20.042527   21.739240 H          1 MOL1         0.0832
       3    H2      17.399499   19.262287   23.014263 H          1 MOL1         0.0832
       4    C2      19.090145   20.362797   23.766410 C.3        1 MOL1        -0.1685
       5    H3      18.333121   21.039814   24.185707 H          1 MOL1         0.0832
       6    H4      19.399239   19.727358   24.606657 H          1 MOL1         0.0832
       7    C3      20.284530   21.227705   23.289909 C.3        1 MOL1        -0.1685
       8    H5      20.933399   21.430395   24.153159 H          1 MOL1         0.0832
       9    H6      19.900492   22.208548   22.977834 H          1 MOL1         0.0832
      10    C4      21.146316   20.670562   22.124526 C.3        1 MOL1        -0.1761
      11    H7      20.623715   20.847200   21.175504 H          1 MOL1         0.0832
      12    H8      22.063232   21.271071   22.064051 H          1 MOL1         0.0832
      13    C5      21.551836   19.180555   22.198090 C.3        1 MOL1         0.1218
      14    H9      22.440044   19.051678   21.562986 H          1 MOL1         0.0789
      15    C6      20.463919   18.234267   21.641991 C.3        1 MOL1        -0.1761
      16    H10     20.226689   18.537061   20.613838 H          1 MOL1         0.0832
      17    H11     20.894601   17.227642   21.561593 H          1 MOL1         0.0832
      18    C7      19.148231   18.140597   22.453768 C.3        1 MOL1        -0.1685
      19    H12     18.467219   17.468582   21.914019 H          1 MOL1         0.0832
      20    H13     19.340117   17.652892   23.419067 H          1 MOL1         0.0832
      21    O1      21.880820   18.818521   23.530333 O.3        1 MOL1        -0.5509
      22    H14     21.077125   19.037766   24.042478 H          1 MOL1         0.3779
@<TRIPOS>BOND
    1     1     2    1
    2     1     3    1
    3     1     4    1
    4     4     5    1
    5     4     6    1
    6     4     7    1
    7     7     8    1
    8     7     9    1
    9     7    10    1
   10    10    11    1
   11    10    12    1
   12    10    13    1
   13    13    14    1
   14    13    15    1
   15    15    16    1
   16    15    17    1
   17     1    18    1
   18    15    18    1
   19    18    19    1
   20    18    20    1
   21    13    21    1
   22    21    22    1
@<TRIPOS>SUBSTRUCTURE
       1 MOL1            1 RESIDUE      1      MOL     
@<SCITEGIC>MOL_PROPERTY
VConf Rank
SciTegic.value.IntegerValue
471

@<SCITEGIC>MOL_PROPERTY
Conf_Id
SciTegic.value.IntegerValue
99

@<SCITEGIC>MOL_PROPERTY
Delta U+W
SciTegic.value.DoubleValue
-3.852

@<SCITEGIC>MOL_PROPERTY
U+W
SciTegic.value.DoubleValue
2.572

@<SCITEGIC>MOL_PROPERTY
Grad RMS
SciTegic.value.DoubleValue
0.000000

@<SCITEGIC>MOL_PROPERTY
U
SciTegic.value.DoubleValue
3.922

@<SCITEGIC>MOL_PROPERTY
W
SciTegic.value.DoubleValue
-1.350

@<SCITEGIC>MOL_PROPERTY
W(PB)
SciTegic.value.DoubleValue
-3.345

@<SCITEGIC>MOL_PROPERTY
W(SA)
SciTegic.value.DoubleValue
1.995

@<SCITEGIC>MOL_PROPERTY
Valence
SciTegic.value.DoubleValue
12.571

@<SCITEGIC>MOL_PROPERTY
Coulomb
SciTegic.value.DoubleValue
-10.581

@<SCITEGIC>MOL_PROPERTY
VdW
SciTegic.value.DoubleValue
1.932

@<SCITEGIC>MOL_PROPERTY
VdW6
SciTegic.value.DoubleValue
-10.483

@<SCITEGIC>MOL_PROPERTY
VdW12
SciTegic.value.DoubleValue
12.415

@<SCITEGIC>MOL_PROPERTY
Bond
SciTegic.value.DoubleValue
0.268

@<SCITEGIC>MOL_PROPERTY
Angle
SciTegic.value.DoubleValue
3.728

@<SCITEGIC>MOL_PROPERTY
Pdih
SciTegic.value.DoubleValue
8.575

@<SCITEGIC>MOL_PROPERTY
Idih
SciTegic.value.DoubleValue
0.000

@<SCITEGIC>MOL_PROPERTY
Tether
SciTegic.value.DoubleValue
0.000

@<TRIPOS>MOLECULE
guest-5_confgen4.mol2 : confsearch ligand conformer 472
          22          22           1
SMALL
USER_CHARGES
 
@<TRIPOS>ATOM
       1    C1      19.711856   18.513846   23.895351 C.3        1 MOL1        -0.1685
       2    H1      19.536260   17.494479   24.265955 H          1 MOL1         0.0832
       3    H2      19.611252   19.157670   24.779333 H          1 MOL1         0.0832
       4    C2      18.596198   18.844587   22.861055 C.3        1 MOL1        -0.1685
       5    H3      17.937617   17.968436   22.784107 H          1 MOL1         0.0832
       6    H4      17.953353   19.649287   23.242188 H          1 MOL1         0.0832
       7    C3      19.079154   19.199266   21.431473 C.3        1 MOL1        -0.1685
       8    H5      18.205870   19.217296   20.765307 H          1 MOL1         0.0832
       9    H6      19.706987   18.388773   21.040966 H          1 MOL1         0.0832
      10    C4      19.820526   20.556562   21.279991 C.3        1 MOL1        -0.1761
      11    H7      20.433751   20.512765   20.370718 H          1 MOL1         0.0832
      12    H8      19.074649   21.339710   21.089351 H          1 MOL1         0.0832
      13    C5      20.713196   21.037668   22.450391 C.3        1 MOL1         0.1218
      14    H9      21.314403   21.875842   22.069881 H          1 MOL1         0.0789
      15    C6      21.705251   19.998077   23.027645 C.3        1 MOL1        -0.1761
      16    H10     22.541361   19.888436   22.325051 H          1 MOL1         0.0832
      17    H11     22.144963   20.429739   23.936665 H          1 MOL1         0.0832
      18    C7      21.167966   18.580233   23.368006 C.3        1 MOL1        -0.1685
      19    H12     21.276160   17.923932   22.495577 H          1 MOL1         0.0832
      20    H13     21.831361   18.142713   24.126431 H          1 MOL1         0.0832
      21    O1      19.897138   21.547199   23.493305 O.3        1 MOL1        -0.5509
      22    H14     19.386600   20.769383   23.795441 H          1 MOL1         0.3779
@<TRIPOS>BOND
    1     1     2    1
    2     1     3    1
    3     1     4    1
    4     4     5    1
    5     4     6    1
    6     4     7    1
    7     7     8    1
    8     7     9    1
    9     7    10    1
   10    10    11    1
   11    10    12    1
   12    10    13    1
   13    13    14    1
   14    13    15    1
   15    15    16    1
   16    15    17    1
   17     1    18    1
   18    15    18    1
   19    18    19    1
   20    18    20    1
   21    13    21    1
   22    21    22    1
@<TRIPOS>SUBSTRUCTURE
       1 MOL1            1 RESIDUE      1      MOL     
@<SCITEGIC>MOL_PROPERTY
VConf Rank
SciTegic.value.IntegerValue
472

@<SCITEGIC>MOL_PROPERTY
Conf_Id
SciTegic.value.IntegerValue
98

@<SCITEGIC>MOL_PROPERTY
Delta U+W
SciTegic.value.DoubleValue
0.930

@<SCITEGIC>MOL_PROPERTY
U+W
SciTegic.value.DoubleValue
7.353

@<SCITEGIC>MOL_PROPERTY
Grad RMS
SciTegic.value.DoubleValue
0.000000

@<SCITEGIC>MOL_PROPERTY
U
SciTegic.value.DoubleValue
8.455

@<SCITEGIC>MOL_PROPERTY
W
SciTegic.value.DoubleValue
-1.102

@<SCITEGIC>MOL_PROPERTY
W(PB)
SciTegic.value.DoubleValue
-3.101

@<SCITEGIC>MOL_PROPERTY
W(SA)
SciTegic.value.DoubleValue
2.000

@<SCITEGIC>MOL_PROPERTY
Valence
SciTegic.value.DoubleValue
15.601

@<SCITEGIC>MOL_PROPERTY
Coulomb
SciTegic.value.DoubleValue
-10.573

@<SCITEGIC>MOL_PROPERTY
VdW
SciTegic.value.DoubleValue
3.427

@<SCITEGIC>MOL_PROPERTY
VdW6
SciTegic.value.DoubleValue
-11.360

@<SCITEGIC>MOL_PROPERTY
VdW12
SciTegic.value.DoubleValue
14.787

@<SCITEGIC>MOL_PROPERTY
Bond
SciTegic.value.DoubleValue
0.471

@<SCITEGIC>MOL_PROPERTY
Angle
SciTegic.value.DoubleValue
5.445

@<SCITEGIC>MOL_PROPERTY
Pdih
SciTegic.value.DoubleValue
9.685

@<SCITEGIC>MOL_PROPERTY
Idih
SciTegic.value.DoubleValue
0.000

@<SCITEGIC>MOL_PROPERTY
Tether
SciTegic.value.DoubleValue
0.000

@<TRIPOS>MOLECULE
guest-5_confgen4.mol2 : confsearch ligand conformer 473
          22          22           1
SMALL
USER_CHARGES
 
@<TRIPOS>ATOM
       1    C1      18.658582   20.366929   23.302030 C.3        1 MOL1        -0.1685
       2    H1      18.120425   20.095842   22.384599 H          1 MOL1         0.0832
       3    H2      17.919198   20.892456   23.921582 H          1 MOL1         0.0832
       4    C2      19.807576   21.350706   22.964164 C.3        1 MOL1        -0.1685
       5    H3      19.357593   22.235480   22.493458 H          1 MOL1         0.0832
       6    H4      20.268802   21.710610   23.893876 H          1 MOL1         0.0832
       7    C3      20.917123   20.811937   22.019030 C.3        1 MOL1        -0.1685
       8    H5      21.815276   20.560553   22.597946 H          1 MOL1         0.0832
       9    H6      21.228470   21.629882   21.355205 H          1 MOL1         0.0832
      10    C4      20.505251   19.595013   21.148876 C.3        1 MOL1        -0.1761
      11    H7      19.572074   19.829002   20.621566 H          1 MOL1         0.0832
      12    H8      21.253647   19.469764   20.354770 H          1 MOL1         0.0832
      13    C5      20.340722   18.243527   21.904049 C.3        1 MOL1         0.1218
      14    H9      19.402945   17.778919   21.566735 H          1 MOL1         0.0789
      15    C6      20.307202   18.331784   23.450446 C.3        1 MOL1        -0.1761
      16    H10     20.311920   17.315207   23.864700 H          1 MOL1         0.0832
      17    H11     21.233744   18.792121   23.814038 H          1 MOL1         0.0832
      18    C7      19.089727   19.081516   24.046655 C.3        1 MOL1        -0.1685
      19    H12     18.230093   18.398079   24.074187 H          1 MOL1         0.0832
      20    H13     19.311672   19.328828   25.093674 H          1 MOL1         0.0832
      21    O1      21.425723   17.393910   21.548945 O.3        1 MOL1        -0.5509
      22    H14     21.267488   16.533737   21.990807 H          1 MOL1         0.3779
@<TRIPOS>BOND
    1     1     2    1
    2     1     3    1
    3     1     4    1
    4     4     5    1
    5     4     6    1
    6     4     7    1
    7     7     8    1
    8     7     9    1
    9     7    10    1
   10    10    11    1
   11    10    12    1
   12    10    13    1
   13    13    14    1
   14    13    15    1
   15    15    16    1
   16    15    17    1
   17     1    18    1
   18    15    18    1
   19    18    19    1
   20    18    20    1
   21    13    21    1
   22    21    22    1
@<TRIPOS>SUBSTRUCTURE
       1 MOL1            1 RESIDUE      1      MOL     
@<SCITEGIC>MOL_PROPERTY
VConf Rank
SciTegic.value.IntegerValue
473

@<SCITEGIC>MOL_PROPERTY
Conf_Id
SciTegic.value.IntegerValue
141

@<SCITEGIC>MOL_PROPERTY
Delta U+W
SciTegic.value.DoubleValue
0.000

@<SCITEGIC>MOL_PROPERTY
U+W
SciTegic.value.DoubleValue
6.423

@<SCITEGIC>MOL_PROPERTY
Grad RMS
SciTegic.value.DoubleValue
0.000000

@<SCITEGIC>MOL_PROPERTY
U
SciTegic.value.DoubleValue
8.781

@<SCITEGIC>MOL_PROPERTY
W
SciTegic.value.DoubleValue
-2.358

@<SCITEGIC>MOL_PROPERTY
W(PB)
SciTegic.value.DoubleValue
-4.373

@<SCITEGIC>MOL_PROPERTY
W(SA)
SciTegic.value.DoubleValue
2.015

@<SCITEGIC>MOL_PROPERTY
Valence
SciTegic.value.DoubleValue
13.328

@<SCITEGIC>MOL_PROPERTY
Coulomb
SciTegic.value.DoubleValue
-8.387

@<SCITEGIC>MOL_PROPERTY
VdW
SciTegic.value.DoubleValue
3.840

@<SCITEGIC>MOL_PROPERTY
VdW6
SciTegic.value.DoubleValue
-9.744

@<SCITEGIC>MOL_PROPERTY
VdW12
SciTegic.value.DoubleValue
13.584

@<SCITEGIC>MOL_PROPERTY
Bond
SciTegic.value.DoubleValue
0.436

@<SCITEGIC>MOL_PROPERTY
Angle
SciTegic.value.DoubleValue
3.478

@<SCITEGIC>MOL_PROPERTY
Pdih
SciTegic.value.DoubleValue
9.415

@<SCITEGIC>MOL_PROPERTY
Idih
SciTegic.value.DoubleValue
0.000

@<SCITEGIC>MOL_PROPERTY
Tether
SciTegic.value.DoubleValue
0.000

@<TRIPOS>MOLECULE
guest-5_confgen4.mol2 : confsearch ligand conformer 474
          22          22           1
SMALL
USER_CHARGES
 
@<TRIPOS>ATOM
       1    C1      19.333054   20.488523   24.023791 C.3        1 MOL1        -0.1685
       2    H1      18.609277   20.960008   23.345221 H          1 MOL1         0.0832
       3    H2      19.090329   20.856638   25.030012 H          1 MOL1         0.0832
       4    C2      20.776361   20.939988   23.694097 C.3        1 MOL1        -0.1685
       5    H3      20.877476   22.003462   23.950327 H          1 MOL1         0.0832
       6    H4      21.482325   20.407576   24.346042 H          1 MOL1         0.0832
       7    C3      21.204001   20.756537   22.219716 C.3        1 MOL1        -0.1685
       8    H5      22.259688   21.047102   22.130710 H          1 MOL1         0.0832
       9    H6      20.645312   21.460203   21.587513 H          1 MOL1         0.0832
      10    C4      21.038106   19.320831   21.664372 C.3        1 MOL1        -0.1761
      11    H7      21.580850   19.268787   20.711373 H          1 MOL1         0.0832
      12    H8      21.517559   18.590663   22.329185 H          1 MOL1         0.0832
      13    C5      19.559837   18.942423   21.421151 C.3        1 MOL1         0.1218
      14    H9      19.016006   19.851265   21.126028 H          1 MOL1         0.0789
      15    C6      18.845292   18.325678   22.645221 C.3        1 MOL1        -0.1761
      16    H10     17.764285   18.399641   22.469710 H          1 MOL1         0.0832
      17    H11     19.069287   17.251626   22.693685 H          1 MOL1         0.0832
      18    C7      19.169050   18.950621   24.025319 C.3        1 MOL1        -0.1685
      19    H12     18.361697   18.678622   24.718876 H          1 MOL1         0.0832
      20    H13     20.076862   18.486986   24.434746 H          1 MOL1         0.0832
      21    O1      19.496543   18.003495   20.354556 O.3        1 MOL1        -0.5509
      22    H14     19.885860   18.441836   19.569121 H          1 MOL1         0.3779
@<TRIPOS>BOND
    1     1     2    1
    2     1     3    1
    3     1     4    1
    4     4     5    1
    5     4     6    1
    6     4     7    1
    7     7     8    1
    8     7     9    1
    9     7    10    1
   10    10    11    1
   11    10    12    1
   12    10    13    1
   13    13    14    1
   14    13    15    1
   15    15    16    1
   16    15    17    1
   17     1    18    1
   18    15    18    1
   19    18    19    1
   20    18    20    1
   21    13    21    1
   22    21    22    1
@<TRIPOS>SUBSTRUCTURE
       1 MOL1            1 RESIDUE      1      MOL     
@<SCITEGIC>MOL_PROPERTY
VConf Rank
SciTegic.value.IntegerValue
474

@<SCITEGIC>MOL_PROPERTY
Conf_Id
SciTegic.value.IntegerValue
144

@<SCITEGIC>MOL_PROPERTY
Delta U+W
SciTegic.value.DoubleValue
-3.291

@<SCITEGIC>MOL_PROPERTY
U+W
SciTegic.value.DoubleValue
3.132

@<SCITEGIC>MOL_PROPERTY
Grad RMS
SciTegic.value.DoubleValue
0.000000

@<SCITEGIC>MOL_PROPERTY
U
SciTegic.value.DoubleValue
5.411

@<SCITEGIC>MOL_PROPERTY
W
SciTegic.value.DoubleValue
-2.279

@<SCITEGIC>MOL_PROPERTY
W(PB)
SciTegic.value.DoubleValue
-4.300

@<SCITEGIC>MOL_PROPERTY
W(SA)
SciTegic.value.DoubleValue
2.021

@<SCITEGIC>MOL_PROPERTY
Valence
SciTegic.value.DoubleValue
11.909

@<SCITEGIC>MOL_PROPERTY
Coulomb
SciTegic.value.DoubleValue
-8.733

@<SCITEGIC>MOL_PROPERTY
VdW
SciTegic.value.DoubleValue
2.236

@<SCITEGIC>MOL_PROPERTY
VdW6
SciTegic.value.DoubleValue
-8.936

@<SCITEGIC>MOL_PROPERTY
VdW12
SciTegic.value.DoubleValue
11.172

@<SCITEGIC>MOL_PROPERTY
Bond
SciTegic.value.DoubleValue
0.223

@<SCITEGIC>MOL_PROPERTY
Angle
SciTegic.value.DoubleValue
2.457

@<SCITEGIC>MOL_PROPERTY
Pdih
SciTegic.value.DoubleValue
9.228

@<SCITEGIC>MOL_PROPERTY
Idih
SciTegic.value.DoubleValue
0.000

@<SCITEGIC>MOL_PROPERTY
Tether
SciTegic.value.DoubleValue
0.000

@<TRIPOS>MOLECULE
guest-5_confgen4.mol2 : confsearch ligand conformer 475
          22          22           1
SMALL
USER_CHARGES
 
@<TRIPOS>ATOM
       1    C1      19.201702   18.039939   22.242277 C.3        1 MOL1        -0.1685
       2    H1      18.682547   17.072242   22.272783 H          1 MOL1         0.0832
       3    H2      19.448624   18.219192   21.187014 H          1 MOL1         0.0832
       4    C2      20.485737   17.921026   23.096202 C.3        1 MOL1        -0.1685
       5    H3      20.235441   18.069876   24.155433 H          1 MOL1         0.0832
       6    H4      20.864693   16.892161   23.026724 H          1 MOL1         0.0832
       7    C3      21.632645   18.879506   22.693911 C.3        1 MOL1        -0.1685
       8    H5      22.197156   18.432864   21.863998 H          1 MOL1         0.0832
       9    H6      22.337402   18.941733   23.534424 H          1 MOL1         0.0832
      10    C4      21.216439   20.311971   22.278029 C.3        1 MOL1        -0.1761
      11    H7      22.105472   20.953331   22.346927 H          1 MOL1         0.0832
      12    H8      20.931537   20.311094   21.217970 H          1 MOL1         0.0832
      13    C5      20.071462   20.926328   23.114202 C.3        1 MOL1         0.1218
      14    H9      20.147235   20.578235   24.154182 H          1 MOL1         0.0789
      15    C6      18.674452   20.578847   22.551531 C.3        1 MOL1        -0.1761
      16    H10     17.932037   21.237151   23.022260 H          1 MOL1         0.0832
      17    H11     18.644739   20.806945   21.478137 H          1 MOL1         0.0832
      18    C7      18.222993   19.115489   22.771722 C.3        1 MOL1        -0.1685
      19    H12     18.040954   18.947865   23.842090 H          1 MOL1         0.0832
      20    H13     17.251300   18.978255   22.277993 H          1 MOL1         0.0832
      21    O1      20.211245   22.340607   23.092125 O.3        1 MOL1        -0.5509
      22    H14     20.140261   22.610968   22.153495 H          1 MOL1         0.3779
@<TRIPOS>BOND
    1     1     2    1
    2     1     3    1
    3     1     4    1
    4     4     5    1
    5     4     6    1
    6     4     7    1
    7     7     8    1
    8     7     9    1
    9     7    10    1
   10    10    11    1
   11    10    12    1
   12    10    13    1
   13    13    14    1
   14    13    15    1
   15    15    16    1
   16    15    17    1
   17     1    18    1
   18    15    18    1
   19    18    19    1
   20    18    20    1
   21    13    21    1
   22    21    22    1
@<TRIPOS>SUBSTRUCTURE
       1 MOL1            1 RESIDUE      1      MOL     
@<SCITEGIC>MOL_PROPERTY
VConf Rank
SciTegic.value.IntegerValue
475

@<SCITEGIC>MOL_PROPERTY
Conf_Id
SciTegic.value.IntegerValue
76

@<SCITEGIC>MOL_PROPERTY
Delta U+W
SciTegic.value.DoubleValue
-3.175

@<SCITEGIC>MOL_PROPERTY
U+W
SciTegic.value.DoubleValue
3.248

@<SCITEGIC>MOL_PROPERTY
Grad RMS
SciTegic.value.DoubleValue
0.000000

@<SCITEGIC>MOL_PROPERTY
U
SciTegic.value.DoubleValue
5.336

@<SCITEGIC>MOL_PROPERTY
W
SciTegic.value.DoubleValue
-2.088

@<SCITEGIC>MOL_PROPERTY
W(PB)
SciTegic.value.DoubleValue
-4.098

@<SCITEGIC>MOL_PROPERTY
W(SA)
SciTegic.value.DoubleValue
2.010

@<SCITEGIC>MOL_PROPERTY
Valence
SciTegic.value.DoubleValue
12.390

@<SCITEGIC>MOL_PROPERTY
Coulomb
SciTegic.value.DoubleValue
-9.270

@<SCITEGIC>MOL_PROPERTY
VdW
SciTegic.value.DoubleValue
2.216

@<SCITEGIC>MOL_PROPERTY
VdW6
SciTegic.value.DoubleValue
-8.967

@<SCITEGIC>MOL_PROPERTY
VdW12
SciTegic.value.DoubleValue
11.183

@<SCITEGIC>MOL_PROPERTY
Bond
SciTegic.value.DoubleValue
0.218

@<SCITEGIC>MOL_PROPERTY
Angle
SciTegic.value.DoubleValue
2.426

@<SCITEGIC>MOL_PROPERTY
Pdih
SciTegic.value.DoubleValue
9.745

@<SCITEGIC>MOL_PROPERTY
Idih
SciTegic.value.DoubleValue
0.000

@<SCITEGIC>MOL_PROPERTY
Tether
SciTegic.value.DoubleValue
0.000

@<TRIPOS>MOLECULE
guest-5_confgen4.mol2 : confsearch ligand conformer 476
          22          22           1
SMALL
USER_CHARGES
 
@<TRIPOS>ATOM
       1    C1      18.601197   20.722990   22.761961 C.3        1 MOL1        -0.1685
       2    H1      17.706490   20.625328   23.391836 H          1 MOL1         0.0832
       3    H2      18.497804   21.686567   22.244618 H          1 MOL1         0.0832
       4    C2      18.580864   19.585771   21.712679 C.3        1 MOL1        -0.1685
       5    H3      18.169976   18.674406   22.167723 H          1 MOL1         0.0832
       6    H4      17.870474   19.865460   20.922803 H          1 MOL1         0.0832
       7    C3      19.949434   19.266494   21.067217 C.3        1 MOL1        -0.1685
       8    H5      20.533166   20.183458   20.908255 H          1 MOL1         0.0832
       9    H6      19.766024   18.845323   20.069586 H          1 MOL1         0.0832
      10    C4      20.766097   18.226478   21.875617 C.3        1 MOL1        -0.1761
      11    H7      20.134696   17.352559   22.080824 H          1 MOL1         0.0832
      12    H8      21.584844   17.856828   21.244407 H          1 MOL1         0.0832
      13    C5      21.377037   18.722418   23.205990 C.3        1 MOL1         0.1218
      14    H9      21.757012   17.834095   23.730963 H          1 MOL1         0.0789
      15    C6      20.385110   19.428506   24.164118 C.3        1 MOL1        -0.1761
      16    H10     19.545293   18.758716   24.389877 H          1 MOL1         0.0832
      17    H11     20.902727   19.586173   25.119106 H          1 MOL1         0.0832
      18    C7      19.852546   20.798333   23.668975 C.3        1 MOL1        -0.1685
      19    H12     19.599650   21.415672   24.541533 H          1 MOL1         0.0832
      20    H13     20.648353   21.345521   23.146751 H          1 MOL1         0.0832
      21    O1      22.480519   19.578005   22.926131 O.3        1 MOL1        -0.5509
      22    H14     22.802908   19.908709   23.789255 H          1 MOL1         0.3779
@<TRIPOS>BOND
    1     1     2    1
    2     1     3    1
    3     1     4    1
    4     4     5    1
    5     4     6    1
    6     4     7    1
    7     7     8    1
    8     7     9    1
    9     7    10    1
   10    10    11    1
   11    10    12    1
   12    10    13    1
   13    13    14    1
   14    13    15    1
   15    15    16    1
   16    15    17    1
   17     1    18    1
   18    15    18    1
   19    18    19    1
   20    18    20    1
   21    13    21    1
   22    21    22    1
@<TRIPOS>SUBSTRUCTURE
       1 MOL1            1 RESIDUE      1      MOL     
@<SCITEGIC>MOL_PROPERTY
VConf Rank
SciTegic.value.IntegerValue
476

@<SCITEGIC>MOL_PROPERTY
Conf_Id
SciTegic.value.IntegerValue
95

@<SCITEGIC>MOL_PROPERTY
Delta U+W
SciTegic.value.DoubleValue
-2.289

@<SCITEGIC>MOL_PROPERTY
U+W
SciTegic.value.DoubleValue
4.134

@<SCITEGIC>MOL_PROPERTY
Grad RMS
SciTegic.value.DoubleValue
0.000000

@<SCITEGIC>MOL_PROPERTY
U
SciTegic.value.DoubleValue
6.373

@<SCITEGIC>MOL_PROPERTY
W
SciTegic.value.DoubleValue
-2.240

@<SCITEGIC>MOL_PROPERTY
W(PB)
SciTegic.value.DoubleValue
-4.254

@<SCITEGIC>MOL_PROPERTY
W(SA)
SciTegic.value.DoubleValue
2.015

@<SCITEGIC>MOL_PROPERTY
Valence
SciTegic.value.DoubleValue
12.093

@<SCITEGIC>MOL_PROPERTY
Coulomb
SciTegic.value.DoubleValue
-8.058

@<SCITEGIC>MOL_PROPERTY
VdW
SciTegic.value.DoubleValue
2.339

@<SCITEGIC>MOL_PROPERTY
VdW6
SciTegic.value.DoubleValue
-9.683

@<SCITEGIC>MOL_PROPERTY
VdW12
SciTegic.value.DoubleValue
12.022

@<SCITEGIC>MOL_PROPERTY
Bond
SciTegic.value.DoubleValue
0.268

@<SCITEGIC>MOL_PROPERTY
Angle
SciTegic.value.DoubleValue
3.005

@<SCITEGIC>MOL_PROPERTY
Pdih
SciTegic.value.DoubleValue
8.820

@<SCITEGIC>MOL_PROPERTY
Idih
SciTegic.value.DoubleValue
0.000

@<SCITEGIC>MOL_PROPERTY
Tether
SciTegic.value.DoubleValue
0.000

@<TRIPOS>MOLECULE
guest-5_confgen4.mol2 : confsearch ligand conformer 477
          22          22           1
SMALL
USER_CHARGES
 
@<TRIPOS>ATOM
       1    C1      19.502787   21.453156   22.881731 C.3        1 MOL1        -0.1685
       2    H1      18.737964   21.869581   23.551350 H          1 MOL1         0.0832
       3    H2      19.932054   22.312537   22.348829 H          1 MOL1         0.0832
       4    C2      18.799358   20.529734   21.858595 C.3        1 MOL1        -0.1685
       5    H3      17.966873   20.007342   22.349059 H          1 MOL1         0.0832
       6    H4      18.335807   21.164585   21.091207 H          1 MOL1         0.0832
       7    C3      19.719404   19.496846   21.167093 C.3        1 MOL1        -0.1685
       8    H5      20.709276   19.926985   20.962266 H          1 MOL1         0.0832
       9    H6      19.283733   19.254592   20.188354 H          1 MOL1         0.0832
      10    C4      19.843719   18.176429   21.968563 C.3        1 MOL1        -0.1761
      11    H7      18.839238   17.819504   22.230321 H          1 MOL1         0.0832
      12    H8      20.264386   17.404873   21.310747 H          1 MOL1         0.0832
      13    C5      20.697757   18.237659   23.255655 C.3        1 MOL1         0.1218
      14    H9      20.540534   17.287686   23.786628 H          1 MOL1         0.0789
      15    C6      20.324418   19.374910   24.239327 C.3        1 MOL1        -0.1761
      16    H10     19.269078   19.289055   24.528076 H          1 MOL1         0.0832
      17    H11     20.901122   19.210700   25.158716 H          1 MOL1         0.0832
      18    C7      20.623701   20.809900   23.732699 C.3        1 MOL1        -0.1685
      19    H12     20.803814   21.459470   24.599784 H          1 MOL1         0.0832
      20    H13     21.563721   20.816895   23.165308 H          1 MOL1         0.0832
      21    O1      22.075309   18.326864   22.904536 O.3        1 MOL1        -0.5509
      22    H14     22.252283   17.600514   22.272647 H          1 MOL1         0.3779
@<TRIPOS>BOND
    1     1     2    1
    2     1     3    1
    3     1     4    1
    4     4     5    1
    5     4     6    1
    6     4     7    1
    7     7     8    1
    8     7     9    1
    9     7    10    1
   10    10    11    1
   11    10    12    1
   12    10    13    1
   13    13    14    1
   14    13    15    1
   15    15    16    1
   16    15    17    1
   17     1    18    1
   18    15    18    1
   19    18    19    1
   20    18    20    1
   21    13    21    1
   22    21    22    1
@<TRIPOS>SUBSTRUCTURE
       1 MOL1            1 RESIDUE      1      MOL     
@<SCITEGIC>MOL_PROPERTY
VConf Rank
SciTegic.value.IntegerValue
477

@<SCITEGIC>MOL_PROPERTY
Conf_Id
SciTegic.value.IntegerValue
41

@<SCITEGIC>MOL_PROPERTY
Delta U+W
SciTegic.value.DoubleValue
-2.114

@<SCITEGIC>MOL_PROPERTY
U+W
SciTegic.value.DoubleValue
4.310

@<SCITEGIC>MOL_PROPERTY
Grad RMS
SciTegic.value.DoubleValue
0.000000

@<SCITEGIC>MOL_PROPERTY
U
SciTegic.value.DoubleValue
6.598

@<SCITEGIC>MOL_PROPERTY
W
SciTegic.value.DoubleValue
-2.289

@<SCITEGIC>MOL_PROPERTY
W(PB)
SciTegic.value.DoubleValue
-4.294

@<SCITEGIC>MOL_PROPERTY
W(SA)
SciTegic.value.DoubleValue
2.005

@<SCITEGIC>MOL_PROPERTY
Valence
SciTegic.value.DoubleValue
12.082

@<SCITEGIC>MOL_PROPERTY
Coulomb
SciTegic.value.DoubleValue
-7.801

@<SCITEGIC>MOL_PROPERTY
VdW
SciTegic.value.DoubleValue
2.317

@<SCITEGIC>MOL_PROPERTY
VdW6
SciTegic.value.DoubleValue
-9.658

@<SCITEGIC>MOL_PROPERTY
VdW12
SciTegic.value.DoubleValue
11.975

@<SCITEGIC>MOL_PROPERTY
Bond
SciTegic.value.DoubleValue
0.267

@<SCITEGIC>MOL_PROPERTY
Angle
SciTegic.value.DoubleValue
3.051

@<SCITEGIC>MOL_PROPERTY
Pdih
SciTegic.value.DoubleValue
8.764

@<SCITEGIC>MOL_PROPERTY
Idih
SciTegic.value.DoubleValue
0.000

@<SCITEGIC>MOL_PROPERTY
Tether
SciTegic.value.DoubleValue
0.000

@<TRIPOS>MOLECULE
guest-5_confgen4.mol2 : confsearch ligand conformer 478
          22          22           1
SMALL
USER_CHARGES
 
@<TRIPOS>ATOM
       1    C1      21.213424   18.608220   21.915051 C.3        1 MOL1        -0.1685
       2    H1      21.782348   17.804687   21.428011 H          1 MOL1         0.0832
       3    H2      21.632153   19.552559   21.540796 H          1 MOL1         0.0832
       4    C2      21.426492   18.482397   23.440226 C.3        1 MOL1        -0.1685
       5    H3      20.947081   17.563362   23.803710 H          1 MOL1         0.0832
       6    H4      22.500412   18.359269   23.635401 H          1 MOL1         0.0832
       7    C3      20.920607   19.687550   24.262971 C.3        1 MOL1        -0.1685
       8    H5      21.546690   20.564170   24.049790 H          1 MOL1         0.0832
       9    H6      21.081452   19.462961   25.325898 H          1 MOL1         0.0832
      10    C4      19.422660   20.042818   24.060173 C.3        1 MOL1        -0.1761
      11    H7      18.801531   19.148568   24.197184 H          1 MOL1         0.0832
      12    H8      19.132775   20.730967   24.864537 H          1 MOL1         0.0832
      13    C5      19.064021   20.732026   22.718382 C.3        1 MOL1         0.1218
      14    H9      18.076490   21.195778   22.856201 H          1 MOL1         0.0789
      15    C6      18.932303   19.794550   21.489998 C.3        1 MOL1        -0.1761
      16    H10     17.871153   19.540179   21.370335 H          1 MOL1         0.0832
      17    H11     19.198504   20.353477   20.583240 H          1 MOL1         0.0832
      18    C7      19.730577   18.467371   21.505972 C.3        1 MOL1        -0.1685
      19    H12     19.231822   17.739931   22.160562 H          1 MOL1         0.0832
      20    H13     19.684130   18.035574   20.496976 H          1 MOL1         0.0832
      21    O1      19.992653   21.773674   22.429361 O.3        1 MOL1        -0.5509
      22    H14     19.694609   22.195545   21.598034 H          1 MOL1         0.3779
@<TRIPOS>BOND
    1     1     2    1
    2     1     3    1
    3     1     4    1
    4     4     5    1
    5     4     6    1
    6     4     7    1
    7     7     8    1
    8     7     9    1
    9     7    10    1
   10    10    11    1
   11    10    12    1
   12    10    13    1
   13    13    14    1
   14    13    15    1
   15    15    16    1
   16    15    17    1
   17     1    18    1
   18    15    18    1
   19    18    19    1
   20    18    20    1
   21    13    21    1
   22    21    22    1
@<TRIPOS>SUBSTRUCTURE
       1 MOL1            1 RESIDUE      1      MOL     
@<SCITEGIC>MOL_PROPERTY
VConf Rank
SciTegic.value.IntegerValue
478

@<SCITEGIC>MOL_PROPERTY
Conf_Id
SciTegic.value.IntegerValue
104

@<SCITEGIC>MOL_PROPERTY
Delta U+W
SciTegic.value.DoubleValue
-1.172

@<SCITEGIC>MOL_PROPERTY
U+W
SciTegic.value.DoubleValue
5.252

@<SCITEGIC>MOL_PROPERTY
Grad RMS
SciTegic.value.DoubleValue
0.000000

@<SCITEGIC>MOL_PROPERTY
U
SciTegic.value.DoubleValue
7.482

@<SCITEGIC>MOL_PROPERTY
W
SciTegic.value.DoubleValue
-2.230

@<SCITEGIC>MOL_PROPERTY
W(PB)
SciTegic.value.DoubleValue
-4.220

@<SCITEGIC>MOL_PROPERTY
W(SA)
SciTegic.value.DoubleValue
1.990

@<SCITEGIC>MOL_PROPERTY
Valence
SciTegic.value.DoubleValue
12.309

@<SCITEGIC>MOL_PROPERTY
Coulomb
SciTegic.value.DoubleValue
-7.084

@<SCITEGIC>MOL_PROPERTY
VdW
SciTegic.value.DoubleValue
2.258

@<SCITEGIC>MOL_PROPERTY
VdW6
SciTegic.value.DoubleValue
-9.770

@<SCITEGIC>MOL_PROPERTY
VdW12
SciTegic.value.DoubleValue
12.028

@<SCITEGIC>MOL_PROPERTY
Bond
SciTegic.value.DoubleValue
0.284

@<SCITEGIC>MOL_PROPERTY
Angle
SciTegic.value.DoubleValue
3.491

@<SCITEGIC>MOL_PROPERTY
Pdih
SciTegic.value.DoubleValue
8.535

@<SCITEGIC>MOL_PROPERTY
Idih
SciTegic.value.DoubleValue
0.000

@<SCITEGIC>MOL_PROPERTY
Tether
SciTegic.value.DoubleValue
0.000

@<TRIPOS>MOLECULE
guest-5_confgen4.mol2 : confsearch ligand conformer 479
          22          22           1
SMALL
USER_CHARGES
 
@<TRIPOS>ATOM
       1    C1      20.427271   21.085592   23.243282 C.3        1 MOL1        -0.1685
       2    H1      19.903102   21.596398   22.424253 H          1 MOL1         0.0832
       3    H2      20.856173   21.879925   23.869395 H          1 MOL1         0.0832
       4    C2      21.594143   20.228160   22.702260 C.3        1 MOL1        -0.1685
       5    H3      22.447504   20.888574   22.495195 H          1 MOL1         0.0832
       6    H4      21.944458   19.550911   23.492166 H          1 MOL1         0.0832
       7    C3      21.294899   19.425019   21.411101 C.3        1 MOL1        -0.1685
       8    H5      21.967830   18.557058   21.377609 H          1 MOL1         0.0832
       9    H6      21.572757   20.042261   20.545806 H          1 MOL1         0.0832
      10    C4      19.834004   18.945684   21.193781 C.3        1 MOL1        -0.1761
      11    H7      19.231618   19.786173   20.825454 H          1 MOL1         0.0832
      12    H8      19.835864   18.213119   20.376256 H          1 MOL1         0.0832
      13    C5      19.113034   18.311591   22.405436 C.3        1 MOL1         0.1218
      14    H9      18.295606   17.690793   22.011352 H          1 MOL1         0.0789
      15    C6      18.467058   19.362195   23.336679 C.3        1 MOL1        -0.1761
      16    H10     17.785803   19.986112   22.743651 H          1 MOL1         0.0832
      17    H11     17.830805   18.834105   24.058862 H          1 MOL1         0.0832
      18    C7      19.436842   20.281957   24.119204 C.3        1 MOL1        -0.1685
      19    H12     18.832156   20.993687   24.697569 H          1 MOL1         0.0832
      20    H13     19.990378   19.692801   24.862825 H          1 MOL1         0.0832
      21    O1      20.004477   17.487934   23.141023 O.3        1 MOL1        -0.5509
      22    H14     20.737925   18.087473   23.383701 H          1 MOL1         0.3779
@<TRIPOS>BOND
    1     1     2    1
    2     1     3    1
    3     1     4    1
    4     4     5    1
    5     4     6    1
    6     4     7    1
    7     7     8    1
    8     7     9    1
    9     7    10    1
   10    10    11    1
   11    10    12    1
   12    10    13    1
   13    13    14    1
   14    13    15    1
   15    15    16    1
   16    15    17    1
   17     1    18    1
   18    15    18    1
   19    18    19    1
   20    18    20    1
   21    13    21    1
   22    21    22    1
@<TRIPOS>SUBSTRUCTURE
       1 MOL1            1 RESIDUE      1      MOL     
@<SCITEGIC>MOL_PROPERTY
VConf Rank
SciTegic.value.IntegerValue
479

@<SCITEGIC>MOL_PROPERTY
Conf_Id
SciTegic.value.IntegerValue
99

@<SCITEGIC>MOL_PROPERTY
Delta U+W
SciTegic.value.DoubleValue
-3.852

@<SCITEGIC>MOL_PROPERTY
U+W
SciTegic.value.DoubleValue
2.572

@<SCITEGIC>MOL_PROPERTY
Grad RMS
SciTegic.value.DoubleValue
0.000000

@<SCITEGIC>MOL_PROPERTY
U
SciTegic.value.DoubleValue
3.922

@<SCITEGIC>MOL_PROPERTY
W
SciTegic.value.DoubleValue
-1.350

@<SCITEGIC>MOL_PROPERTY
W(PB)
SciTegic.value.DoubleValue
-3.345

@<SCITEGIC>MOL_PROPERTY
W(SA)
SciTegic.value.DoubleValue
1.995

@<SCITEGIC>MOL_PROPERTY
Valence
SciTegic.value.DoubleValue
12.571

@<SCITEGIC>MOL_PROPERTY
Coulomb
SciTegic.value.DoubleValue
-10.581

@<SCITEGIC>MOL_PROPERTY
VdW
SciTegic.value.DoubleValue
1.932

@<SCITEGIC>MOL_PROPERTY
VdW6
SciTegic.value.DoubleValue
-10.483

@<SCITEGIC>MOL_PROPERTY
VdW12
SciTegic.value.DoubleValue
12.415

@<SCITEGIC>MOL_PROPERTY
Bond
SciTegic.value.DoubleValue
0.268

@<SCITEGIC>MOL_PROPERTY
Angle
SciTegic.value.DoubleValue
3.728

@<SCITEGIC>MOL_PROPERTY
Pdih
SciTegic.value.DoubleValue
8.575

@<SCITEGIC>MOL_PROPERTY
Idih
SciTegic.value.DoubleValue
0.000

@<SCITEGIC>MOL_PROPERTY
Tether
SciTegic.value.DoubleValue
0.000

@<TRIPOS>MOLECULE
guest-5_confgen4.mol2 : confsearch ligand conformer 480
          22          22           1
SMALL
USER_CHARGES
 
@<TRIPOS>ATOM
       1    C1      19.073572   18.861061   23.791519 C.3        1 MOL1        -0.1685
       2    H1      18.427704   18.034066   24.117441 H          1 MOL1         0.0832
       3    H2      19.076594   19.566492   24.633192 H          1 MOL1         0.0832
       4    C2      18.414637   19.518043   22.543308 C.3        1 MOL1        -0.1685
       5    H3      17.483480   18.975515   22.329067 H          1 MOL1         0.0832
       6    H4      18.097479   20.542888   22.778167 H          1 MOL1         0.0832
       7    C3      19.267114   19.522437   21.248699 C.3        1 MOL1        -0.1685
       8    H5      18.624901   19.829608   20.412078 H          1 MOL1         0.0832
       9    H6      19.570329   18.497488   21.001495 H          1 MOL1         0.0832
      10    C4      20.513394   20.450634   21.256805 C.3        1 MOL1        -0.1761
      11    H7      21.218072   20.085236   20.498745 H          1 MOL1         0.0832
      12    H8      20.206199   21.446677   20.911081 H          1 MOL1         0.0832
      13    C5      21.279804   20.635447   22.589703 C.3        1 MOL1         0.1218
      14    H9      22.232776   21.125993   22.344789 H          1 MOL1         0.0789
      15    C6      21.626588   19.341027   23.365824 C.3        1 MOL1        -0.1761
      16    H10     22.462993   18.844594   22.857176 H          1 MOL1         0.0832
      17    H11     22.019522   19.638943   24.347071 H          1 MOL1         0.0832
      18    C7      20.500891   18.292579   23.585736 C.3        1 MOL1        -0.1685
      19    H12     20.497287   17.573747   22.756980 H          1 MOL1         0.0832
      20    H13     20.766284   17.694841   24.468346 H          1 MOL1         0.0832
      21    O1      20.559250   21.518626   23.434712 O.3        1 MOL1        -0.5509
      22    H14     19.727000   21.039960   23.622254 H          1 MOL1         0.3779
@<TRIPOS>BOND
    1     1     2    1
    2     1     3    1
    3     1     4    1
    4     4     5    1
    5     4     6    1
    6     4     7    1
    7     7     8    1
    8     7     9    1
    9     7    10    1
   10    10    11    1
   11    10    12    1
   12    10    13    1
   13    13    14    1
   14    13    15    1
   15    15    16    1
   16    15    17    1
   17     1    18    1
   18    15    18    1
   19    18    19    1
   20    18    20    1
   21    13    21    1
   22    21    22    1
@<TRIPOS>SUBSTRUCTURE
       1 MOL1            1 RESIDUE      1      MOL     
@<SCITEGIC>MOL_PROPERTY
VConf Rank
SciTegic.value.IntegerValue
480

@<SCITEGIC>MOL_PROPERTY
Conf_Id
SciTegic.value.IntegerValue
98

@<SCITEGIC>MOL_PROPERTY
Delta U+W
SciTegic.value.DoubleValue
0.930

@<SCITEGIC>MOL_PROPERTY
U+W
SciTegic.value.DoubleValue
7.353

@<SCITEGIC>MOL_PROPERTY
Grad RMS
SciTegic.value.DoubleValue
0.000000

@<SCITEGIC>MOL_PROPERTY
U
SciTegic.value.DoubleValue
8.455

@<SCITEGIC>MOL_PROPERTY
W
SciTegic.value.DoubleValue
-1.102

@<SCITEGIC>MOL_PROPERTY
W(PB)
SciTegic.value.DoubleValue
-3.101

@<SCITEGIC>MOL_PROPERTY
W(SA)
SciTegic.value.DoubleValue
2.000

@<SCITEGIC>MOL_PROPERTY
Valence
SciTegic.value.DoubleValue
15.601

@<SCITEGIC>MOL_PROPERTY
Coulomb
SciTegic.value.DoubleValue
-10.573

@<SCITEGIC>MOL_PROPERTY
VdW
SciTegic.value.DoubleValue
3.427

@<SCITEGIC>MOL_PROPERTY
VdW6
SciTegic.value.DoubleValue
-11.360

@<SCITEGIC>MOL_PROPERTY
VdW12
SciTegic.value.DoubleValue
14.787

@<SCITEGIC>MOL_PROPERTY
Bond
SciTegic.value.DoubleValue
0.471

@<SCITEGIC>MOL_PROPERTY
Angle
SciTegic.value.DoubleValue
5.445

@<SCITEGIC>MOL_PROPERTY
Pdih
SciTegic.value.DoubleValue
9.685

@<SCITEGIC>MOL_PROPERTY
Idih
SciTegic.value.DoubleValue
0.000

@<SCITEGIC>MOL_PROPERTY
Tether
SciTegic.value.DoubleValue
0.000

@<TRIPOS>MOLECULE
guest-5_confgen4.mol2 : confsearch ligand conformer 481
          22          22           1
SMALL
USER_CHARGES
 
@<TRIPOS>ATOM
       1    C1      18.805052   18.339278   22.903017 C.3        1 MOL1        -0.1685
       2    H1      18.975390   18.464736   23.980062 H          1 MOL1         0.0832
       3    H2      17.983016   17.614591   22.826870 H          1 MOL1         0.0832
       4    C2      20.065538   17.726751   22.241092 C.3        1 MOL1        -0.1685
       5    H3      20.257195   16.760036   22.726482 H          1 MOL1         0.0832
       6    H4      19.852118   17.494145   21.188966 H          1 MOL1         0.0832
       7    C3      21.364986   18.574903   22.323062 C.3        1 MOL1        -0.1685
       8    H5      21.560209   19.058679   21.357213 H          1 MOL1         0.0832
       9    H6      22.211448   17.891019   22.472860 H          1 MOL1         0.0832
      10    C4      21.383044   19.642271   23.449166 C.3        1 MOL1        -0.1761
      11    H7      21.124607   19.164302   24.402256 H          1 MOL1         0.0832
      12    H8      22.417111   19.988928   23.579248 H          1 MOL1         0.0832
      13    C5      20.461153   20.877599   23.230183 C.3        1 MOL1         0.1218
      14    H9      19.917147   21.064725   24.167257 H          1 MOL1         0.0789
      15    C6      19.424030   20.754022   22.085909 C.3        1 MOL1        -0.1761
      16    H10     18.924551   21.722447   21.952745 H          1 MOL1         0.0832
      17    H11     19.941554   20.567318   21.137279 H          1 MOL1         0.0832
      18    C7      18.327932   19.679700   22.296169 C.3        1 MOL1        -0.1685
      19    H12     17.547039   20.091824   22.949755 H          1 MOL1         0.0832
      20    H13     17.841181   19.485253   21.330801 H          1 MOL1         0.0832
      21    O1      21.279903   22.005706   22.943479 O.3        1 MOL1        -0.5509
      22    H14     20.681048   22.777570   22.867466 H          1 MOL1         0.3779
@<TRIPOS>BOND
    1     1     2    1
    2     1     3    1
    3     1     4    1
    4     4     5    1
    5     4     6    1
    6     4     7    1
    7     7     8    1
    8     7     9    1
    9     7    10    1
   10    10    11    1
   11    10    12    1
   12    10    13    1
   13    13    14    1
   14    13    15    1
   15    15    16    1
   16    15    17    1
   17     1    18    1
   18    15    18    1
   19    18    19    1
   20    18    20    1
   21    13    21    1
   22    21    22    1
@<TRIPOS>SUBSTRUCTURE
       1 MOL1            1 RESIDUE      1      MOL     
@<SCITEGIC>MOL_PROPERTY
VConf Rank
SciTegic.value.IntegerValue
481

@<SCITEGIC>MOL_PROPERTY
Conf_Id
SciTegic.value.IntegerValue
141

@<SCITEGIC>MOL_PROPERTY
Delta U+W
SciTegic.value.DoubleValue
0.000

@<SCITEGIC>MOL_PROPERTY
U+W
SciTegic.value.DoubleValue
6.423

@<SCITEGIC>MOL_PROPERTY
Grad RMS
SciTegic.value.DoubleValue
0.000000

@<SCITEGIC>MOL_PROPERTY
U
SciTegic.value.DoubleValue
8.781

@<SCITEGIC>MOL_PROPERTY
W
SciTegic.value.DoubleValue
-2.358

@<SCITEGIC>MOL_PROPERTY
W(PB)
SciTegic.value.DoubleValue
-4.373

@<SCITEGIC>MOL_PROPERTY
W(SA)
SciTegic.value.DoubleValue
2.015

@<SCITEGIC>MOL_PROPERTY
Valence
SciTegic.value.DoubleValue
13.328

@<SCITEGIC>MOL_PROPERTY
Coulomb
SciTegic.value.DoubleValue
-8.387

@<SCITEGIC>MOL_PROPERTY
VdW
SciTegic.value.DoubleValue
3.840

@<SCITEGIC>MOL_PROPERTY
VdW6
SciTegic.value.DoubleValue
-9.744

@<SCITEGIC>MOL_PROPERTY
VdW12
SciTegic.value.DoubleValue
13.584

@<SCITEGIC>MOL_PROPERTY
Bond
SciTegic.value.DoubleValue
0.436

@<SCITEGIC>MOL_PROPERTY
Angle
SciTegic.value.DoubleValue
3.478

@<SCITEGIC>MOL_PROPERTY
Pdih
SciTegic.value.DoubleValue
9.415

@<SCITEGIC>MOL_PROPERTY
Idih
SciTegic.value.DoubleValue
0.000

@<SCITEGIC>MOL_PROPERTY
Tether
SciTegic.value.DoubleValue
0.000

@<TRIPOS>MOLECULE
guest-5_confgen4.mol2 : confsearch ligand conformer 482
          22          22           1
SMALL
USER_CHARGES
 
@<TRIPOS>ATOM
       1    C1      19.613716   18.193852   23.614796 C.3        1 MOL1        -0.1685
       2    H1      20.117767   17.579164   22.856707 H          1 MOL1         0.0832
       3    H2      19.308261   17.502622   24.412169 H          1 MOL1         0.0832
       4    C2      18.331731   18.842214   23.038778 C.3        1 MOL1        -0.1685
       5    H3      17.592494   18.051035   22.853257 H          1 MOL1         0.0832
       6    H4      17.882912   19.497985   23.797332 H          1 MOL1         0.0832
       7    C3      18.526988   19.636802   21.726972 C.3        1 MOL1        -0.1685
       8    H5      17.566880   20.099618   21.460851 H          1 MOL1         0.0832
       9    H6      18.760534   18.940477   20.909936 H          1 MOL1         0.0832
      10    C4      19.608879   20.742735   21.787026 C.3        1 MOL1        -0.1761
      11    H7      19.490067   21.372085   20.895237 H          1 MOL1         0.0832
      12    H8      19.442437   21.400852   22.649682 H          1 MOL1         0.0832
      13    C5      21.044627   20.172039   21.810672 C.3        1 MOL1         0.1218
      14    H9      21.055526   19.243248   21.222392 H          1 MOL1         0.0789
      15    C6      21.587281   19.857632   23.223460 C.3        1 MOL1        -0.1761
      16    H10     22.443411   19.180742   23.106368 H          1 MOL1         0.0832
      17    H11     21.989345   20.776386   23.671061 H          1 MOL1         0.0832
      18    C7      20.588428   19.227454   24.226063 C.3        1 MOL1        -0.1685
      19    H12     21.168170   18.742952   25.023547 H          1 MOL1         0.0832
      20    H13     20.014344   20.022273   24.721441 H          1 MOL1         0.0832
      21    O1      21.921395   21.111441   21.200737 O.3        1 MOL1        -0.5509
      22    H14     21.603864   21.238901   20.282289 H          1 MOL1         0.3779
@<TRIPOS>BOND
    1     1     2    1
    2     1     3    1
    3     1     4    1
    4     4     5    1
    5     4     6    1
    6     4     7    1
    7     7     8    1
    8     7     9    1
    9     7    10    1
   10    10    11    1
   11    10    12    1
   12    10    13    1
   13    13    14    1
   14    13    15    1
   15    15    16    1
   16    15    17    1
   17     1    18    1
   18    15    18    1
   19    18    19    1
   20    18    20    1
   21    13    21    1
   22    21    22    1
@<TRIPOS>SUBSTRUCTURE
       1 MOL1            1 RESIDUE      1      MOL     
@<SCITEGIC>MOL_PROPERTY
VConf Rank
SciTegic.value.IntegerValue
482

@<SCITEGIC>MOL_PROPERTY
Conf_Id
SciTegic.value.IntegerValue
144

@<SCITEGIC>MOL_PROPERTY
Delta U+W
SciTegic.value.DoubleValue
-3.291

@<SCITEGIC>MOL_PROPERTY
U+W
SciTegic.value.DoubleValue
3.132

@<SCITEGIC>MOL_PROPERTY
Grad RMS
SciTegic.value.DoubleValue
0.000000

@<SCITEGIC>MOL_PROPERTY
U
SciTegic.value.DoubleValue
5.411

@<SCITEGIC>MOL_PROPERTY
W
SciTegic.value.DoubleValue
-2.279

@<SCITEGIC>MOL_PROPERTY
W(PB)
SciTegic.value.DoubleValue
-4.300

@<SCITEGIC>MOL_PROPERTY
W(SA)
SciTegic.value.DoubleValue
2.021

@<SCITEGIC>MOL_PROPERTY
Valence
SciTegic.value.DoubleValue
11.909

@<SCITEGIC>MOL_PROPERTY
Coulomb
SciTegic.value.DoubleValue
-8.733

@<SCITEGIC>MOL_PROPERTY
VdW
SciTegic.value.DoubleValue
2.236

@<SCITEGIC>MOL_PROPERTY
VdW6
SciTegic.value.DoubleValue
-8.936

@<SCITEGIC>MOL_PROPERTY
VdW12
SciTegic.value.DoubleValue
11.172

@<SCITEGIC>MOL_PROPERTY
Bond
SciTegic.value.DoubleValue
0.223

@<SCITEGIC>MOL_PROPERTY
Angle
SciTegic.value.DoubleValue
2.457

@<SCITEGIC>MOL_PROPERTY
Pdih
SciTegic.value.DoubleValue
9.228

@<SCITEGIC>MOL_PROPERTY
Idih
SciTegic.value.DoubleValue
0.000

@<SCITEGIC>MOL_PROPERTY
Tether
SciTegic.value.DoubleValue
0.000

@<TRIPOS>MOLECULE
guest-5_confgen4.mol2 : confsearch ligand conformer 483
          22          22           1
SMALL
USER_CHARGES
 
@<TRIPOS>ATOM
       1    C1      18.882032   19.274908   23.997529 C.3        1 MOL1        -0.1685
       2    H1      18.055510   19.313911   24.720184 H          1 MOL1         0.0832
       3    H2      19.556889   18.483130   24.350145 H          1 MOL1         0.0832
       4    C2      19.591763   20.649044   24.007938 C.3        1 MOL1        -0.1685
       5    H3      19.041164   21.349759   23.365587 H          1 MOL1         0.0832
       6    H4      19.532816   21.071788   25.020267 H          1 MOL1         0.0832
       7    C3      21.081615   20.621488   23.589005 C.3        1 MOL1        -0.1685
       8    H5      21.692924   20.349568   24.460369 H          1 MOL1         0.0832
       9    H6      21.381121   21.644297   23.322215 H          1 MOL1         0.0832
      10    C4      21.450214   19.668608   22.425264 C.3        1 MOL1        -0.1761
      11    H7      22.421903   19.987826   22.024777 H          1 MOL1         0.0832
      12    H8      21.609853   18.658244   22.823478 H          1 MOL1         0.0832
      13    C5      20.415014   19.608513   21.279689 C.3        1 MOL1         0.1218
      14    H9      19.950624   20.596543   21.150819 H          1 MOL1         0.0789
      15    C6      19.318003   18.548236   21.527396 C.3        1 MOL1        -0.1761
      16    H10     18.775548   18.377348   20.587890 H          1 MOL1         0.0832
      17    H11     19.786613   17.589706   21.785681 H          1 MOL1         0.0832
      18    C7      18.282636   18.916354   22.616532 C.3        1 MOL1        -0.1685
      19    H12     17.661114   19.749617   22.261130 H          1 MOL1         0.0832
      20    H13     17.599087   18.065534   22.741645 H          1 MOL1         0.0832
      21    O1      21.094923   19.260938   20.080887 O.3        1 MOL1        -0.5509
      22    H14     21.494709   18.380268   20.235000 H          1 MOL1         0.3779
@<TRIPOS>BOND
    1     1     2    1
    2     1     3    1
    3     1     4    1
    4     4     5    1
    5     4     6    1
    6     4     7    1
    7     7     8    1
    8     7     9    1
    9     7    10    1
   10    10    11    1
   11    10    12    1
   12    10    13    1
   13    13    14    1
   14    13    15    1
   15    15    16    1
   16    15    17    1
   17     1    18    1
   18    15    18    1
   19    18    19    1
   20    18    20    1
   21    13    21    1
   22    21    22    1
@<TRIPOS>SUBSTRUCTURE
       1 MOL1            1 RESIDUE      1      MOL     
@<SCITEGIC>MOL_PROPERTY
VConf Rank
SciTegic.value.IntegerValue
483

@<SCITEGIC>MOL_PROPERTY
Conf_Id
SciTegic.value.IntegerValue
76

@<SCITEGIC>MOL_PROPERTY
Delta U+W
SciTegic.value.DoubleValue
-3.175

@<SCITEGIC>MOL_PROPERTY
U+W
SciTegic.value.DoubleValue
3.248

@<SCITEGIC>MOL_PROPERTY
Grad RMS
SciTegic.value.DoubleValue
0.000000

@<SCITEGIC>MOL_PROPERTY
U
SciTegic.value.DoubleValue
5.336

@<SCITEGIC>MOL_PROPERTY
W
SciTegic.value.DoubleValue
-2.088

@<SCITEGIC>MOL_PROPERTY
W(PB)
SciTegic.value.DoubleValue
-4.098

@<SCITEGIC>MOL_PROPERTY
W(SA)
SciTegic.value.DoubleValue
2.010

@<SCITEGIC>MOL_PROPERTY
Valence
SciTegic.value.DoubleValue
12.390

@<SCITEGIC>MOL_PROPERTY
Coulomb
SciTegic.value.DoubleValue
-9.270

@<SCITEGIC>MOL_PROPERTY
VdW
SciTegic.value.DoubleValue
2.216

@<SCITEGIC>MOL_PROPERTY
VdW6
SciTegic.value.DoubleValue
-8.967

@<SCITEGIC>MOL_PROPERTY
VdW12
SciTegic.value.DoubleValue
11.183

@<SCITEGIC>MOL_PROPERTY
Bond
SciTegic.value.DoubleValue
0.218

@<SCITEGIC>MOL_PROPERTY
Angle
SciTegic.value.DoubleValue
2.426

@<SCITEGIC>MOL_PROPERTY
Pdih
SciTegic.value.DoubleValue
9.745

@<SCITEGIC>MOL_PROPERTY
Idih
SciTegic.value.DoubleValue
0.000

@<SCITEGIC>MOL_PROPERTY
Tether
SciTegic.value.DoubleValue
0.000

@<TRIPOS>MOLECULE
guest-5_confgen4.mol2 : confsearch ligand conformer 484
          22          22           1
SMALL
USER_CHARGES
 
@<TRIPOS>ATOM
       1    C1      19.855935   21.330280   23.261907 C.3        1 MOL1        -0.1685
       2    H1      18.955387   21.953319   23.174631 H          1 MOL1         0.0832
       3    H2      20.580301   21.931084   23.828603 H          1 MOL1         0.0832
       4    C2      20.413187   21.083159   21.839559 C.3        1 MOL1        -0.1685
       5    H3      19.579309   20.971878   21.133342 H          1 MOL1         0.0832
       6    H4      20.947636   21.988983   21.522334 H          1 MOL1         0.0832
       7    C3      21.362200   19.868973   21.710448 C.3        1 MOL1        -0.1685
       8    H5      21.997826   19.769753   22.600937 H          1 MOL1         0.0832
       9    H6      22.043224   20.056339   20.869381 H          1 MOL1         0.0832
      10    C4      20.608163   18.546119   21.421373 C.3        1 MOL1        -0.1761
      11    H7      19.928652   18.696225   20.572700 H          1 MOL1         0.0832
      12    H8      21.335252   17.794328   21.087357 H          1 MOL1         0.0832
      13    C5      19.808082   17.944552   22.599119 C.3        1 MOL1         0.1218
      14    H9      19.198115   17.129107   22.184284 H          1 MOL1         0.0789
      15    C6      18.838562   18.924647   23.306179 C.3        1 MOL1        -0.1761
      16    H10     18.132238   19.340694   22.576186 H          1 MOL1         0.0832
      17    H11     18.229274   18.339593   24.007083 H          1 MOL1         0.0832
      18    C7      19.520975   20.071232   24.096667 C.3        1 MOL1        -0.1685
      19    H12     18.858734   20.377558   24.917656 H          1 MOL1         0.0832
      20    H13     20.434179   19.702654   24.582105 H          1 MOL1         0.0832
      21    O1      20.713629   17.384206   23.544645 O.3        1 MOL1        -0.5509
      22    H14     20.171356   17.063126   24.293732 H          1 MOL1         0.3779
@<TRIPOS>BOND
    1     1     2    1
    2     1     3    1
    3     1     4    1
    4     4     5    1
    5     4     6    1
    6     4     7    1
    7     7     8    1
    8     7     9    1
    9     7    10    1
   10    10    11    1
   11    10    12    1
   12    10    13    1
   13    13    14    1
   14    13    15    1
   15    15    16    1
   16    15    17    1
   17     1    18    1
   18    15    18    1
   19    18    19    1
   20    18    20    1
   21    13    21    1
   22    21    22    1
@<TRIPOS>SUBSTRUCTURE
       1 MOL1            1 RESIDUE      1      MOL     
@<SCITEGIC>MOL_PROPERTY
VConf Rank
SciTegic.value.IntegerValue
484

@<SCITEGIC>MOL_PROPERTY
Conf_Id
SciTegic.value.IntegerValue
95

@<SCITEGIC>MOL_PROPERTY
Delta U+W
SciTegic.value.DoubleValue
-2.289

@<SCITEGIC>MOL_PROPERTY
U+W
SciTegic.value.DoubleValue
4.134

@<SCITEGIC>MOL_PROPERTY
Grad RMS
SciTegic.value.DoubleValue
0.000000

@<SCITEGIC>MOL_PROPERTY
U
SciTegic.value.DoubleValue
6.373

@<SCITEGIC>MOL_PROPERTY
W
SciTegic.value.DoubleValue
-2.240

@<SCITEGIC>MOL_PROPERTY
W(PB)
SciTegic.value.DoubleValue
-4.254

@<SCITEGIC>MOL_PROPERTY
W(SA)
SciTegic.value.DoubleValue
2.015

@<SCITEGIC>MOL_PROPERTY
Valence
SciTegic.value.DoubleValue
12.093

@<SCITEGIC>MOL_PROPERTY
Coulomb
SciTegic.value.DoubleValue
-8.058

@<SCITEGIC>MOL_PROPERTY
VdW
SciTegic.value.DoubleValue
2.339

@<SCITEGIC>MOL_PROPERTY
VdW6
SciTegic.value.DoubleValue
-9.683

@<SCITEGIC>MOL_PROPERTY
VdW12
SciTegic.value.DoubleValue
12.022

@<SCITEGIC>MOL_PROPERTY
Bond
SciTegic.value.DoubleValue
0.268

@<SCITEGIC>MOL_PROPERTY
Angle
SciTegic.value.DoubleValue
3.005

@<SCITEGIC>MOL_PROPERTY
Pdih
SciTegic.value.DoubleValue
8.820

@<SCITEGIC>MOL_PROPERTY
Idih
SciTegic.value.DoubleValue
0.000

@<SCITEGIC>MOL_PROPERTY
Tether
SciTegic.value.DoubleValue
0.000

@<TRIPOS>MOLECULE
guest-5_confgen4.mol2 : confsearch ligand conformer 485
          22          22           1
SMALL
USER_CHARGES
 
@<TRIPOS>ATOM
       1    C1      18.242801   19.051157   22.976127 C.3        1 MOL1        -0.1685
       2    H1      17.707960   18.927445   23.927650 H          1 MOL1         0.0832
       3    H2      17.513153   18.810978   22.190814 H          1 MOL1         0.0832
       4    C2      19.390434   18.014374   22.927667 C.3        1 MOL1        -0.1685
       5    H3      19.812173   17.888084   23.933980 H          1 MOL1         0.0832
       6    H4      18.956172   17.039498   22.667221 H          1 MOL1         0.0832
       7    C3      20.526569   18.340466   21.930483 C.3        1 MOL1        -0.1685
       8    H5      20.126536   18.793128   21.012937 H          1 MOL1         0.0832
       9    H6      20.993380   17.394240   21.625244 H          1 MOL1         0.0832
      10    C4      21.630313   19.232341   22.553071 C.3        1 MOL1        -0.1761
      11    H7      21.946673   18.796713   23.509649 H          1 MOL1         0.0832
      12    H8      22.517821   19.193939   21.908216 H          1 MOL1         0.0832
      13    C5      21.259550   20.715290   22.783576 C.3        1 MOL1         0.1218
      14    H9      22.070527   21.156258   23.381040 H          1 MOL1         0.0789
      15    C6      19.941564   20.950271   23.563340 C.3        1 MOL1        -0.1761
      16    H10     19.989165   20.449822   24.538929 H          1 MOL1         0.0832
      17    H11     19.880222   22.024548   23.780123 H          1 MOL1         0.0832
      18    C7      18.648757   20.535466   22.813655 C.3        1 MOL1        -0.1685
      19    H12     17.817011   21.154262   23.176297 H          1 MOL1         0.0832
      20    H13     18.743455   20.774273   21.746124 H          1 MOL1         0.0832
      21    O1      21.213919   21.390939   21.530457 O.3        1 MOL1        -0.5509
      22    H14     22.058177   21.196326   21.074891 H          1 MOL1         0.3779
@<TRIPOS>BOND
    1     1     2    1
    2     1     3    1
    3     1     4    1
    4     4     5    1
    5     4     6    1
    6     4     7    1
    7     7     8    1
    8     7     9    1
    9     7    10    1
   10    10    11    1
   11    10    12    1
   12    10    13    1
   13    13    14    1
   14    13    15    1
   15    15    16    1
   16    15    17    1
   17     1    18    1
   18    15    18    1
   19    18    19    1
   20    18    20    1
   21    13    21    1
   22    21    22    1
@<TRIPOS>SUBSTRUCTURE
       1 MOL1            1 RESIDUE      1      MOL     
@<SCITEGIC>MOL_PROPERTY
VConf Rank
SciTegic.value.IntegerValue
485

@<SCITEGIC>MOL_PROPERTY
Conf_Id
SciTegic.value.IntegerValue
41

@<SCITEGIC>MOL_PROPERTY
Delta U+W
SciTegic.value.DoubleValue
-2.114

@<SCITEGIC>MOL_PROPERTY
U+W
SciTegic.value.DoubleValue
4.310

@<SCITEGIC>MOL_PROPERTY
Grad RMS
SciTegic.value.DoubleValue
0.000000

@<SCITEGIC>MOL_PROPERTY
U
SciTegic.value.DoubleValue
6.598

@<SCITEGIC>MOL_PROPERTY
W
SciTegic.value.DoubleValue
-2.289

@<SCITEGIC>MOL_PROPERTY
W(PB)
SciTegic.value.DoubleValue
-4.294

@<SCITEGIC>MOL_PROPERTY
W(SA)
SciTegic.value.DoubleValue
2.005

@<SCITEGIC>MOL_PROPERTY
Valence
SciTegic.value.DoubleValue
12.082

@<SCITEGIC>MOL_PROPERTY
Coulomb
SciTegic.value.DoubleValue
-7.801

@<SCITEGIC>MOL_PROPERTY
VdW
SciTegic.value.DoubleValue
2.317

@<SCITEGIC>MOL_PROPERTY
VdW6
SciTegic.value.DoubleValue
-9.658

@<SCITEGIC>MOL_PROPERTY
VdW12
SciTegic.value.DoubleValue
11.975

@<SCITEGIC>MOL_PROPERTY
Bond
SciTegic.value.DoubleValue
0.267

@<SCITEGIC>MOL_PROPERTY
Angle
SciTegic.value.DoubleValue
3.051

@<SCITEGIC>MOL_PROPERTY
Pdih
SciTegic.value.DoubleValue
8.764

@<SCITEGIC>MOL_PROPERTY
Idih
SciTegic.value.DoubleValue
0.000

@<SCITEGIC>MOL_PROPERTY
Tether
SciTegic.value.DoubleValue
0.000

@<TRIPOS>MOLECULE
guest-5_confgen4.mol2 : confsearch ligand conformer 486
          22          22           1
SMALL
USER_CHARGES
 
@<TRIPOS>ATOM
       1    C1      20.219372   18.633652   21.322004 C.3        1 MOL1        -0.1685
       2    H1      20.055077   18.100174   20.375981 H          1 MOL1         0.0832
       3    H2      21.305661   18.770515   21.413776 H          1 MOL1         0.0832
       4    C2      19.681880   17.745483   22.466401 C.3        1 MOL1        -0.1685
       5    H3      18.588372   17.672439   22.392333 H          1 MOL1         0.0832
       6    H4      20.062040   16.724515   22.326178 H          1 MOL1         0.0832
       7    C3      20.071972   18.216125   23.884690 C.3        1 MOL1        -0.1685
       8    H5      21.152988   18.086858   24.028162 H          1 MOL1         0.0832
       9    H6      19.596560   17.540278   24.608112 H          1 MOL1         0.0832
      10    C4      19.660370   19.672245   24.233239 C.3        1 MOL1        -0.1761
      11    H7      18.595424   19.824755   24.016702 H          1 MOL1         0.0832
      12    H8      19.762495   19.795283   25.319064 H          1 MOL1         0.0832
      13    C5      20.498732   20.792922   23.565958 C.3        1 MOL1         0.1218
      14    H9      20.309504   21.712056   24.139250 H          1 MOL1         0.0789
      15    C6      20.139178   21.121577   22.093597 C.3        1 MOL1        -0.1761
      16    H10     19.443061   21.970385   22.096331 H          1 MOL1         0.0832
      17    H11     21.037451   21.487455   21.579096 H          1 MOL1         0.0832
      18    C7      19.501348   19.998743   21.238427 C.3        1 MOL1        -0.1685
      19    H12     18.443399   19.879480   21.508488 H          1 MOL1         0.0832
      20    H13     19.502074   20.332423   20.191844 H          1 MOL1         0.0832
      21    O1      21.890065   20.501289   23.666276 O.3        1 MOL1        -0.5509
      22    H14     22.366865   21.256980   23.266899 H          1 MOL1         0.3779
@<TRIPOS>BOND
    1     1     2    1
    2     1     3    1
    3     1     4    1
    4     4     5    1
    5     4     6    1
    6     4     7    1
    7     7     8    1
    8     7     9    1
    9     7    10    1
   10    10    11    1
   11    10    12    1
   12    10    13    1
   13    13    14    1
   14    13    15    1
   15    15    16    1
   16    15    17    1
   17     1    18    1
   18    15    18    1
   19    18    19    1
   20    18    20    1
   21    13    21    1
   22    21    22    1
@<TRIPOS>SUBSTRUCTURE
       1 MOL1            1 RESIDUE      1      MOL     
@<SCITEGIC>MOL_PROPERTY
VConf Rank
SciTegic.value.IntegerValue
486

@<SCITEGIC>MOL_PROPERTY
Conf_Id
SciTegic.value.IntegerValue
104

@<SCITEGIC>MOL_PROPERTY
Delta U+W
SciTegic.value.DoubleValue
-1.172

@<SCITEGIC>MOL_PROPERTY
U+W
SciTegic.value.DoubleValue
5.252

@<SCITEGIC>MOL_PROPERTY
Grad RMS
SciTegic.value.DoubleValue
0.000000

@<SCITEGIC>MOL_PROPERTY
U
SciTegic.value.DoubleValue
7.482

@<SCITEGIC>MOL_PROPERTY
W
SciTegic.value.DoubleValue
-2.230

@<SCITEGIC>MOL_PROPERTY
W(PB)
SciTegic.value.DoubleValue
-4.220

@<SCITEGIC>MOL_PROPERTY
W(SA)
SciTegic.value.DoubleValue
1.990

@<SCITEGIC>MOL_PROPERTY
Valence
SciTegic.value.DoubleValue
12.309

@<SCITEGIC>MOL_PROPERTY
Coulomb
SciTegic.value.DoubleValue
-7.084

@<SCITEGIC>MOL_PROPERTY
VdW
SciTegic.value.DoubleValue
2.258

@<SCITEGIC>MOL_PROPERTY
VdW6
SciTegic.value.DoubleValue
-9.770

@<SCITEGIC>MOL_PROPERTY
VdW12
SciTegic.value.DoubleValue
12.028

@<SCITEGIC>MOL_PROPERTY
Bond
SciTegic.value.DoubleValue
0.284

@<SCITEGIC>MOL_PROPERTY
Angle
SciTegic.value.DoubleValue
3.491

@<SCITEGIC>MOL_PROPERTY
Pdih
SciTegic.value.DoubleValue
8.535

@<SCITEGIC>MOL_PROPERTY
Idih
SciTegic.value.DoubleValue
0.000

@<SCITEGIC>MOL_PROPERTY
Tether
SciTegic.value.DoubleValue
0.000

@<TRIPOS>MOLECULE
guest-5_confgen4.mol2 : confsearch ligand conformer 487
          22          22           1
SMALL
USER_CHARGES
 
@<TRIPOS>ATOM
       1    C1      21.288652   19.476778   21.576533 C.3        1 MOL1        -0.1685
       2    H1      20.697400   19.934201   20.771754 H          1 MOL1         0.0832
       3    H2      22.263222   19.230780   21.133096 H          1 MOL1         0.0832
       4    C2      20.641037   18.157689   22.056203 C.3        1 MOL1        -0.1685
       5    H3      20.896315   17.362287   21.342468 H          1 MOL1         0.0832
       6    H4      21.103430   17.848765   23.002826 H          1 MOL1         0.0832
       7    C3      19.098553   18.181805   22.203975 C.3        1 MOL1        -0.1685
       8    H5      18.807636   17.418752   22.939116 H          1 MOL1         0.0832
       9    H6      18.653432   17.855452   21.254086 H          1 MOL1         0.0832
      10    C4      18.441564   19.535464   22.587610 C.3        1 MOL1        -0.1761
      11    H7      18.378308   20.169668   21.693887 H          1 MOL1         0.0832
      12    H8      17.400531   19.337637   22.874170 H          1 MOL1         0.0832
      13    C5      19.107320   20.344525   23.724346 C.3        1 MOL1         0.1218
      14    H9      18.345249   21.024596   24.131323 H          1 MOL1         0.0789
      15    C6      20.274841   21.227317   23.228521 C.3        1 MOL1        -0.1761
      16    H10     19.904900   21.883557   22.430051 H          1 MOL1         0.0832
      17    H11     20.569884   21.896087   24.047631 H          1 MOL1         0.0832
      18    C7      21.536932   20.485025   22.723623 C.3        1 MOL1        -0.1685
      19    H12     22.252285   21.240078   22.370245 H          1 MOL1         0.0832
      20    H13     22.032562   19.979435   23.563390 H          1 MOL1         0.0832
      21    O1      19.552583   19.479339   24.757479 O.3        1 MOL1        -0.5509
      22    H14     20.157075   18.858284   24.304526 H          1 MOL1         0.3779
@<TRIPOS>BOND
    1     1     2    1
    2     1     3    1
    3     1     4    1
    4     4     5    1
    5     4     6    1
    6     4     7    1
    7     7     8    1
    8     7     9    1
    9     7    10    1
   10    10    11    1
   11    10    12    1
   12    10    13    1
   13    13    14    1
   14    13    15    1
   15    15    16    1
   16    15    17    1
   17     1    18    1
   18    15    18    1
   19    18    19    1
   20    18    20    1
   21    13    21    1
   22    21    22    1
@<TRIPOS>SUBSTRUCTURE
       1 MOL1            1 RESIDUE      1      MOL     
@<SCITEGIC>MOL_PROPERTY
VConf Rank
SciTegic.value.IntegerValue
487

@<SCITEGIC>MOL_PROPERTY
Conf_Id
SciTegic.value.IntegerValue
99

@<SCITEGIC>MOL_PROPERTY
Delta U+W
SciTegic.value.DoubleValue
-3.852

@<SCITEGIC>MOL_PROPERTY
U+W
SciTegic.value.DoubleValue
2.572

@<SCITEGIC>MOL_PROPERTY
Grad RMS
SciTegic.value.DoubleValue
0.000000

@<SCITEGIC>MOL_PROPERTY
U
SciTegic.value.DoubleValue
3.922

@<SCITEGIC>MOL_PROPERTY
W
SciTegic.value.DoubleValue
-1.350

@<SCITEGIC>MOL_PROPERTY
W(PB)
SciTegic.value.DoubleValue
-3.345

@<SCITEGIC>MOL_PROPERTY
W(SA)
SciTegic.value.DoubleValue
1.995

@<SCITEGIC>MOL_PROPERTY
Valence
SciTegic.value.DoubleValue
12.571

@<SCITEGIC>MOL_PROPERTY
Coulomb
SciTegic.value.DoubleValue
-10.581

@<SCITEGIC>MOL_PROPERTY
VdW
SciTegic.value.DoubleValue
1.932

@<SCITEGIC>MOL_PROPERTY
VdW6
SciTegic.value.DoubleValue
-10.483

@<SCITEGIC>MOL_PROPERTY
VdW12
SciTegic.value.DoubleValue
12.415

@<SCITEGIC>MOL_PROPERTY
Bond
SciTegic.value.DoubleValue
0.268

@<SCITEGIC>MOL_PROPERTY
Angle
SciTegic.value.DoubleValue
3.728

@<SCITEGIC>MOL_PROPERTY
Pdih
SciTegic.value.DoubleValue
8.575

@<SCITEGIC>MOL_PROPERTY
Idih
SciTegic.value.DoubleValue
0.000

@<SCITEGIC>MOL_PROPERTY
Tether
SciTegic.value.DoubleValue
0.000

@<TRIPOS>MOLECULE
guest-5_confgen4.mol2 : confsearch ligand conformer 488
          22          22           1
SMALL
USER_CHARGES
 
@<TRIPOS>ATOM
       1    C1      21.455733   20.487998   22.410752 C.3        1 MOL1        -0.1685
       2    H1      22.303483   21.089769   22.766397 H          1 MOL1         0.0832
       3    H2      21.585354   20.432208   21.321651 H          1 MOL1         0.0832
       4    C2      20.146536   21.256315   22.756502 C.3        1 MOL1        -0.1685
       5    H3      20.427632   22.190714   23.261650 H          1 MOL1         0.0832
       6    H4      19.639667   21.573881   21.835476 H          1 MOL1         0.0832
       7    C3      19.141992   20.509155   23.670500 C.3        1 MOL1        -0.1685
       8    H5      18.369728   21.221411   23.991476 H          1 MOL1         0.0832
       9    H6      19.640951   20.206460   24.599470 H          1 MOL1         0.0832
      10    C4      18.425208   19.284526   23.036991 C.3        1 MOL1        -0.1761
      11    H7      18.073763   18.635005   23.848995 H          1 MOL1         0.0832
      12    H8      17.515327   19.637520   22.533494 H          1 MOL1         0.0832
      13    C5      19.213254   18.418853   22.023210 C.3        1 MOL1         0.1218
      14    H9      18.632395   17.498012   21.870142 H          1 MOL1         0.0789
      15    C6      20.636974   17.986525   22.452463 C.3        1 MOL1        -0.1761
      16    H10     20.546959   17.183425   23.195207 H          1 MOL1         0.0832
      17    H11     21.118715   17.523111   21.581159 H          1 MOL1         0.0832
      18    C7      21.593064   19.070585   23.022993 C.3        1 MOL1        -0.1685
      19    H12     21.482026   19.125671   24.113041 H          1 MOL1         0.0832
      20    H13     22.624036   18.724577   22.867756 H          1 MOL1         0.0832
      21    O1      19.275305   19.087444   20.773259 O.3        1 MOL1        -0.5509
      22    H14     19.797768   19.892734   20.961604 H          1 MOL1         0.3779
@<TRIPOS>BOND
    1     1     2    1
    2     1     3    1
    3     1     4    1
    4     4     5    1
    5     4     6    1
    6     4     7    1
    7     7     8    1
    8     7     9    1
    9     7    10    1
   10    10    11    1
   11    10    12    1
   12    10    13    1
   13    13    14    1
   14    13    15    1
   15    15    16    1
   16    15    17    1
   17     1    18    1
   18    15    18    1
   19    18    19    1
   20    18    20    1
   21    13    21    1
   22    21    22    1
@<TRIPOS>SUBSTRUCTURE
       1 MOL1            1 RESIDUE      1      MOL     
@<SCITEGIC>MOL_PROPERTY
VConf Rank
SciTegic.value.IntegerValue
488

@<SCITEGIC>MOL_PROPERTY
Conf_Id
SciTegic.value.IntegerValue
98

@<SCITEGIC>MOL_PROPERTY
Delta U+W
SciTegic.value.DoubleValue
0.930

@<SCITEGIC>MOL_PROPERTY
U+W
SciTegic.value.DoubleValue
7.353

@<SCITEGIC>MOL_PROPERTY
Grad RMS
SciTegic.value.DoubleValue
0.000000

@<SCITEGIC>MOL_PROPERTY
U
SciTegic.value.DoubleValue
8.455

@<SCITEGIC>MOL_PROPERTY
W
SciTegic.value.DoubleValue
-1.102

@<SCITEGIC>MOL_PROPERTY
W(PB)
SciTegic.value.DoubleValue
-3.101

@<SCITEGIC>MOL_PROPERTY
W(SA)
SciTegic.value.DoubleValue
2.000

@<SCITEGIC>MOL_PROPERTY
Valence
SciTegic.value.DoubleValue
15.601

@<SCITEGIC>MOL_PROPERTY
Coulomb
SciTegic.value.DoubleValue
-10.573

@<SCITEGIC>MOL_PROPERTY
VdW
SciTegic.value.DoubleValue
3.427

@<SCITEGIC>MOL_PROPERTY
VdW6
SciTegic.value.DoubleValue
-11.360

@<SCITEGIC>MOL_PROPERTY
VdW12
SciTegic.value.DoubleValue
14.787

@<SCITEGIC>MOL_PROPERTY
Bond
SciTegic.value.DoubleValue
0.471

@<SCITEGIC>MOL_PROPERTY
Angle
SciTegic.value.DoubleValue
5.445

@<SCITEGIC>MOL_PROPERTY
Pdih
SciTegic.value.DoubleValue
9.685

@<SCITEGIC>MOL_PROPERTY
Idih
SciTegic.value.DoubleValue
0.000

@<SCITEGIC>MOL_PROPERTY
Tether
SciTegic.value.DoubleValue
0.000

@<TRIPOS>MOLECULE
guest-5_confgen4.mol2 : confsearch ligand conformer 489
          22          22           1
SMALL
USER_CHARGES
 
@<TRIPOS>ATOM
       1    C1      20.433884   21.163662   23.006130 C.3        1 MOL1        -0.1685
       2    H1      19.380503   21.417188   22.830364 H          1 MOL1         0.0832
       3    H2      20.906553   22.106377   23.313676 H          1 MOL1         0.0832
       4    C2      21.087515   20.693139   21.681919 C.3        1 MOL1        -0.1685
       5    H3      20.993714   21.513409   20.957190 H          1 MOL1         0.0832
       6    H4      22.166278   20.552539   21.833992 H          1 MOL1         0.0832
       7    C3      20.490909   19.410063   21.039720 C.3        1 MOL1        -0.1685
       8    H5      21.152176   18.553783   21.225532 H          1 MOL1         0.0832
       9    H6      20.495413   19.539188   19.948876 H          1 MOL1         0.0832
      10    C4      19.049157   19.057983   21.492604 C.3        1 MOL1        -0.1761
      11    H7      18.406585   19.937878   21.364109 H          1 MOL1         0.0832
      12    H8      18.643081   18.309068   20.799339 H          1 MOL1         0.0832
      13    C5      18.904280   18.527407   22.949097 C.3        1 MOL1         0.1218
      14    H9      18.059878   19.052467   23.418527 H          1 MOL1         0.0789
      15    C6      20.146295   18.699597   23.859046 C.3        1 MOL1        -0.1761
      16    H10     19.964680   18.182250   24.810058 H          1 MOL1         0.0832
      17    H11     21.004958   18.183417   23.413126 H          1 MOL1         0.0832
      18    C7      20.535036   20.163942   24.182127 C.3        1 MOL1        -0.1685
      19    H12     19.895968   20.529737   24.997357 H          1 MOL1         0.0832
      20    H13     21.560504   20.173236   24.575828 H          1 MOL1         0.0832
      21    O1      18.605166   17.137179   22.894589 O.3        1 MOL1        -0.5509
      22    H14     18.462722   16.842293   23.818131 H          1 MOL1         0.3779
@<TRIPOS>BOND
    1     1     2    1
    2     1     3    1
    3     1     4    1
    4     4     5    1
    5     4     6    1
    6     4     7    1
    7     7     8    1
    8     7     9    1
    9     7    10    1
   10    10    11    1
   11    10    12    1
   12    10    13    1
   13    13    14    1
   14    13    15    1
   15    15    16    1
   16    15    17    1
   17     1    18    1
   18    15    18    1
   19    18    19    1
   20    18    20    1
   21    13    21    1
   22    21    22    1
@<TRIPOS>SUBSTRUCTURE
       1 MOL1            1 RESIDUE      1      MOL     
@<SCITEGIC>MOL_PROPERTY
VConf Rank
SciTegic.value.IntegerValue
489

@<SCITEGIC>MOL_PROPERTY
Conf_Id
SciTegic.value.IntegerValue
141

@<SCITEGIC>MOL_PROPERTY
Delta U+W
SciTegic.value.DoubleValue
0.000

@<SCITEGIC>MOL_PROPERTY
U+W
SciTegic.value.DoubleValue
6.423

@<SCITEGIC>MOL_PROPERTY
Grad RMS
SciTegic.value.DoubleValue
0.000000

@<SCITEGIC>MOL_PROPERTY
U
SciTegic.value.DoubleValue
8.781

@<SCITEGIC>MOL_PROPERTY
W
SciTegic.value.DoubleValue
-2.358

@<SCITEGIC>MOL_PROPERTY
W(PB)
SciTegic.value.DoubleValue
-4.373

@<SCITEGIC>MOL_PROPERTY
W(SA)
SciTegic.value.DoubleValue
2.015

@<SCITEGIC>MOL_PROPERTY
Valence
SciTegic.value.DoubleValue
13.328

@<SCITEGIC>MOL_PROPERTY
Coulomb
SciTegic.value.DoubleValue
-8.387

@<SCITEGIC>MOL_PROPERTY
VdW
SciTegic.value.DoubleValue
3.840

@<SCITEGIC>MOL_PROPERTY
VdW6
SciTegic.value.DoubleValue
-9.744

@<SCITEGIC>MOL_PROPERTY
VdW12
SciTegic.value.DoubleValue
13.584

@<SCITEGIC>MOL_PROPERTY
Bond
SciTegic.value.DoubleValue
0.436

@<SCITEGIC>MOL_PROPERTY
Angle
SciTegic.value.DoubleValue
3.478

@<SCITEGIC>MOL_PROPERTY
Pdih
SciTegic.value.DoubleValue
9.415

@<SCITEGIC>MOL_PROPERTY
Idih
SciTegic.value.DoubleValue
0.000

@<SCITEGIC>MOL_PROPERTY
Tether
SciTegic.value.DoubleValue
0.000

@<TRIPOS>MOLECULE
guest-5_confgen4.mol2 : confsearch ligand conformer 490
          22          22           1
SMALL
USER_CHARGES
 
@<TRIPOS>ATOM
       1    C1      18.989133   18.819818   23.859793 C.3        1 MOL1        -0.1685
       2    H1      19.451308   17.863626   23.579258 H          1 MOL1         0.0832
       3    H2      18.309495   18.595609   24.693297 H          1 MOL1         0.0832
       4    C2      18.136818   19.384669   22.697830 C.3        1 MOL1        -0.1685
       5    H3      17.261064   18.736136   22.558850 H          1 MOL1         0.0832
       6    H4      17.737864   20.367647   22.983257 H          1 MOL1         0.0832
       7    C3      18.868403   19.504186   21.341058 C.3        1 MOL1        -0.1685
       8    H5      18.183826   19.976511   20.623360 H          1 MOL1         0.0832
       9    H6      19.070309   18.499280   20.945638 H          1 MOL1         0.0832
      10    C4      20.184961   20.318150   21.377342 C.3        1 MOL1        -0.1761
      11    H7      20.476689   20.523956   20.339063 H          1 MOL1         0.0832
      12    H8      20.022698   21.296201   21.848600 H          1 MOL1         0.0832
      13    C5      21.334388   19.562307   22.081008 C.3        1 MOL1         0.1218
      14    H9      21.206362   18.486998   21.890842 H          1 MOL1         0.0789
      15    C6      21.404264   19.779463   23.609817 C.3        1 MOL1        -0.1761
      16    H10     22.020054   18.974279   24.030926 H          1 MOL1         0.0832
      17    H11     21.944293   20.712357   23.820024 H          1 MOL1         0.0832
      18    C7      20.053485   19.820647   24.367276 C.3        1 MOL1        -0.1685
      19    H12     20.253437   19.621025   25.428876 H          1 MOL1         0.0832
      20    H13     19.643310   20.839085   24.331915 H          1 MOL1         0.0832
      21    O1      22.571415   19.983240   21.519049 O.3        1 MOL1        -0.5509
      22    H14     22.535480   19.767318   20.563693 H          1 MOL1         0.3779
@<TRIPOS>BOND
    1     1     2    1
    2     1     3    1
    3     1     4    1
    4     4     5    1
    5     4     6    1
    6     4     7    1
    7     7     8    1
    8     7     9    1
    9     7    10    1
   10    10    11    1
   11    10    12    1
   12    10    13    1
   13    13    14    1
   14    13    15    1
   15    15    16    1
   16    15    17    1
   17     1    18    1
   18    15    18    1
   19    18    19    1
   20    18    20    1
   21    13    21    1
   22    21    22    1
@<TRIPOS>SUBSTRUCTURE
       1 MOL1            1 RESIDUE      1      MOL     
@<SCITEGIC>MOL_PROPERTY
VConf Rank
SciTegic.value.IntegerValue
490

@<SCITEGIC>MOL_PROPERTY
Conf_Id
SciTegic.value.IntegerValue
144

@<SCITEGIC>MOL_PROPERTY
Delta U+W
SciTegic.value.DoubleValue
-3.291

@<SCITEGIC>MOL_PROPERTY
U+W
SciTegic.value.DoubleValue
3.132

@<SCITEGIC>MOL_PROPERTY
Grad RMS
SciTegic.value.DoubleValue
0.000000

@<SCITEGIC>MOL_PROPERTY
U
SciTegic.value.DoubleValue
5.411

@<SCITEGIC>MOL_PROPERTY
W
SciTegic.value.DoubleValue
-2.279

@<SCITEGIC>MOL_PROPERTY
W(PB)
SciTegic.value.DoubleValue
-4.300

@<SCITEGIC>MOL_PROPERTY
W(SA)
SciTegic.value.DoubleValue
2.021

@<SCITEGIC>MOL_PROPERTY
Valence
SciTegic.value.DoubleValue
11.909

@<SCITEGIC>MOL_PROPERTY
Coulomb
SciTegic.value.DoubleValue
-8.733

@<SCITEGIC>MOL_PROPERTY
VdW
SciTegic.value.DoubleValue
2.236

@<SCITEGIC>MOL_PROPERTY
VdW6
SciTegic.value.DoubleValue
-8.936

@<SCITEGIC>MOL_PROPERTY
VdW12
SciTegic.value.DoubleValue
11.172

@<SCITEGIC>MOL_PROPERTY
Bond
SciTegic.value.DoubleValue
0.223

@<SCITEGIC>MOL_PROPERTY
Angle
SciTegic.value.DoubleValue
2.457

@<SCITEGIC>MOL_PROPERTY
Pdih
SciTegic.value.DoubleValue
9.228

@<SCITEGIC>MOL_PROPERTY
Idih
SciTegic.value.DoubleValue
0.000

@<SCITEGIC>MOL_PROPERTY
Tether
SciTegic.value.DoubleValue
0.000

@<TRIPOS>MOLECULE
guest-5_confgen4.mol2 : confsearch ligand conformer 491
          22          22           1
SMALL
USER_CHARGES
 
@<TRIPOS>ATOM
       1    C1      18.821749   19.629737   23.975123 C.3        1 MOL1        -0.1685
       2    H1      17.945996   19.518188   24.628961 H          1 MOL1         0.0832
       3    H2      19.557183   20.210203   24.548602 H          1 MOL1         0.0832
       4    C2      18.378440   20.399405   22.708962 C.3        1 MOL1        -0.1685
       5    H3      17.916604   19.699913   21.998898 H          1 MOL1         0.0832
       6    H4      17.583153   21.106127   22.982933 H          1 MOL1         0.0832
       7    C3      19.499727   21.195724   21.998671 C.3        1 MOL1        -0.1685
       8    H5      19.616188   22.168974   22.494794 H          1 MOL1         0.0832
       9    H6      19.165274   21.420278   20.976548 H          1 MOL1         0.0832
      10    C4      20.890241   20.516958   21.936311 C.3        1 MOL1        -0.1761
      11    H7      21.470792   21.012654   21.146554 H          1 MOL1         0.0832
      12    H8      21.430175   20.714813   22.871308 H          1 MOL1         0.0832
      13    C5      20.860743   18.994165   21.675877 C.3        1 MOL1         0.1218
      14    H9      20.019662   18.750468   21.011299 H          1 MOL1         0.0789
      15    C6      20.746423   18.172132   22.979783 C.3        1 MOL1        -0.1761
      16    H10     20.984097   17.123456   22.756355 H          1 MOL1         0.0832
      17    H11     21.508418   18.510262   23.694007 H          1 MOL1         0.0832
      18    C7      19.358422   18.212350   23.662096 C.3        1 MOL1        -0.1685
      19    H12     18.630388   17.676185   23.038061 H          1 MOL1         0.0832
      20    H13     19.421395   17.646337   24.601485 H          1 MOL1         0.0832
      21    O1      22.074485   18.627118   21.033758 O.3        1 MOL1        -0.5509
      22    H14     22.796518   18.860178   21.653040 H          1 MOL1         0.3779
@<TRIPOS>BOND
    1     1     2    1
    2     1     3    1
    3     1     4    1
    4     4     5    1
    5     4     6    1
    6     4     7    1
    7     7     8    1
    8     7     9    1
    9     7    10    1
   10    10    11    1
   11    10    12    1
   12    10    13    1
   13    13    14    1
   14    13    15    1
   15    15    16    1
   16    15    17    1
   17     1    18    1
   18    15    18    1
   19    18    19    1
   20    18    20    1
   21    13    21    1
   22    21    22    1
@<TRIPOS>SUBSTRUCTURE
       1 MOL1            1 RESIDUE      1      MOL     
@<SCITEGIC>MOL_PROPERTY
VConf Rank
SciTegic.value.IntegerValue
491

@<SCITEGIC>MOL_PROPERTY
Conf_Id
SciTegic.value.IntegerValue
76

@<SCITEGIC>MOL_PROPERTY
Delta U+W
SciTegic.value.DoubleValue
-3.175

@<SCITEGIC>MOL_PROPERTY
U+W
SciTegic.value.DoubleValue
3.248

@<SCITEGIC>MOL_PROPERTY
Grad RMS
SciTegic.value.DoubleValue
0.000000

@<SCITEGIC>MOL_PROPERTY
U
SciTegic.value.DoubleValue
5.336

@<SCITEGIC>MOL_PROPERTY
W
SciTegic.value.DoubleValue
-2.088

@<SCITEGIC>MOL_PROPERTY
W(PB)
SciTegic.value.DoubleValue
-4.098

@<SCITEGIC>MOL_PROPERTY
W(SA)
SciTegic.value.DoubleValue
2.010

@<SCITEGIC>MOL_PROPERTY
Valence
SciTegic.value.DoubleValue
12.390

@<SCITEGIC>MOL_PROPERTY
Coulomb
SciTegic.value.DoubleValue
-9.270

@<SCITEGIC>MOL_PROPERTY
VdW
SciTegic.value.DoubleValue
2.216

@<SCITEGIC>MOL_PROPERTY
VdW6
SciTegic.value.DoubleValue
-8.967

@<SCITEGIC>MOL_PROPERTY
VdW12
SciTegic.value.DoubleValue
11.183

@<SCITEGIC>MOL_PROPERTY
Bond
SciTegic.value.DoubleValue
0.218

@<SCITEGIC>MOL_PROPERTY
Angle
SciTegic.value.DoubleValue
2.426

@<SCITEGIC>MOL_PROPERTY
Pdih
SciTegic.value.DoubleValue
9.745

@<SCITEGIC>MOL_PROPERTY
Idih
SciTegic.value.DoubleValue
0.000

@<SCITEGIC>MOL_PROPERTY
Tether
SciTegic.value.DoubleValue
0.000

@<TRIPOS>MOLECULE
guest-5_confgen4.mol2 : confsearch ligand conformer 492
          22          22           1
SMALL
USER_CHARGES
 
@<TRIPOS>ATOM
       1    C1      19.067431   19.340650   21.116891 C.3        1 MOL1        -0.1685
       2    H1      18.508978   18.448263   20.802954 H          1 MOL1         0.0832
       3    H2      18.851608   20.108433   20.361415 H          1 MOL1         0.0832
       4    C2      20.577728   19.006150   21.074635 C.3        1 MOL1        -0.1685
       5    H3      20.731746   17.965615   21.390932 H          1 MOL1         0.0832
       6    H4      20.904949   19.045920   20.026719 H          1 MOL1         0.0832
       7    C3      21.478291   19.938771   21.917694 C.3        1 MOL1        -0.1685
       8    H5      21.118994   20.976078   21.876027 H          1 MOL1         0.0832
       9    H6      22.479737   19.944894   21.466740 H          1 MOL1         0.0832
      10    C4      21.624886   19.464854   23.386024 C.3        1 MOL1        -0.1761
      11    H7      21.914711   18.406360   23.396249 H          1 MOL1         0.0832
      12    H8      22.463103   20.004379   23.846154 H          1 MOL1         0.0832
      13    C5      20.385298   19.650157   24.290558 C.3        1 MOL1         0.1218
      14    H9      20.590107   19.106716   25.224273 H          1 MOL1         0.0789
      15    C6      19.060641   19.087434   23.716875 C.3        1 MOL1        -0.1761
      16    H10     19.176577   18.019286   23.492156 H          1 MOL1         0.0832
      17    H11     18.305856   19.142242   24.511912 H          1 MOL1         0.0832
      18    C7      18.510976   19.834199   22.473723 C.3        1 MOL1        -0.1685
      19    H12     17.418358   19.724475   22.449869 H          1 MOL1         0.0832
      20    H13     18.692628   20.912598   22.571180 H          1 MOL1         0.0832
      21    O1      20.235259   21.030997   24.604869 O.3        1 MOL1        -0.5509
      22    H14     19.414358   21.109337   25.132380 H          1 MOL1         0.3779
@<TRIPOS>BOND
    1     1     2    1
    2     1     3    1
    3     1     4    1
    4     4     5    1
    5     4     6    1
    6     4     7    1
    7     7     8    1
    8     7     9    1
    9     7    10    1
   10    10    11    1
   11    10    12    1
   12    10    13    1
   13    13    14    1
   14    13    15    1
   15    15    16    1
   16    15    17    1
   17     1    18    1
   18    15    18    1
   19    18    19    1
   20    18    20    1
   21    13    21    1
   22    21    22    1
@<TRIPOS>SUBSTRUCTURE
       1 MOL1            1 RESIDUE      1      MOL     
@<SCITEGIC>MOL_PROPERTY
VConf Rank
SciTegic.value.IntegerValue
492

@<SCITEGIC>MOL_PROPERTY
Conf_Id
SciTegic.value.IntegerValue
95

@<SCITEGIC>MOL_PROPERTY
Delta U+W
SciTegic.value.DoubleValue
-2.289

@<SCITEGIC>MOL_PROPERTY
U+W
SciTegic.value.DoubleValue
4.134

@<SCITEGIC>MOL_PROPERTY
Grad RMS
SciTegic.value.DoubleValue
0.000000

@<SCITEGIC>MOL_PROPERTY
U
SciTegic.value.DoubleValue
6.373

@<SCITEGIC>MOL_PROPERTY
W
SciTegic.value.DoubleValue
-2.240

@<SCITEGIC>MOL_PROPERTY
W(PB)
SciTegic.value.DoubleValue
-4.254

@<SCITEGIC>MOL_PROPERTY
W(SA)
SciTegic.value.DoubleValue
2.015

@<SCITEGIC>MOL_PROPERTY
Valence
SciTegic.value.DoubleValue
12.093

@<SCITEGIC>MOL_PROPERTY
Coulomb
SciTegic.value.DoubleValue
-8.058

@<SCITEGIC>MOL_PROPERTY
VdW
SciTegic.value.DoubleValue
2.339

@<SCITEGIC>MOL_PROPERTY
VdW6
SciTegic.value.DoubleValue
-9.683

@<SCITEGIC>MOL_PROPERTY
VdW12
SciTegic.value.DoubleValue
12.022

@<SCITEGIC>MOL_PROPERTY
Bond
SciTegic.value.DoubleValue
0.268

@<SCITEGIC>MOL_PROPERTY
Angle
SciTegic.value.DoubleValue
3.005

@<SCITEGIC>MOL_PROPERTY
Pdih
SciTegic.value.DoubleValue
8.820

@<SCITEGIC>MOL_PROPERTY
Idih
SciTegic.value.DoubleValue
0.000

@<SCITEGIC>MOL_PROPERTY
Tether
SciTegic.value.DoubleValue
0.000

@<TRIPOS>MOLECULE
guest-5_confgen4.mol2 : confsearch ligand conformer 493
          22          22           1
SMALL
USER_CHARGES
 
@<TRIPOS>ATOM
       1    C1      21.336321   19.411590   24.099093 C.3        1 MOL1        -0.1685
       2    H1      22.227806   18.769711   24.099650 H          1 MOL1         0.0832
       3    H2      21.352919   19.945363   25.059094 H          1 MOL1         0.0832
       4    C2      20.085223   18.502211   24.053123 C.3        1 MOL1        -0.1685
       5    H3      20.292992   17.625539   23.424826 H          1 MOL1         0.0832
       6    H4      19.916809   18.105532   25.063608 H          1 MOL1         0.0832
       7    C3      18.791136   19.192222   23.562471 C.3        1 MOL1        -0.1685
       8    H5      18.732910   20.225764   23.930194 H          1 MOL1         0.0832
       9    H6      17.935360   18.663129   24.003078 H          1 MOL1         0.0832
      10    C4      18.634754   19.142345   22.021573 C.3        1 MOL1        -0.1761
      11    H7      18.783446   18.110171   21.678929 H          1 MOL1         0.0832
      12    H8      17.595527   19.386816   21.766183 H          1 MOL1         0.0832
      13    C5      19.567027   20.071622   21.210989 C.3        1 MOL1         0.1218
      14    H9      19.455056   19.790241   20.153923 H          1 MOL1         0.0789
      15    C6      21.073154   19.954897   21.554921 C.3        1 MOL1        -0.1761
      16    H10     21.410096   18.919739   21.415617 H          1 MOL1         0.0832
      17    H11     21.621958   20.551047   20.814484 H          1 MOL1         0.0832
      18    C7      21.468087   20.458799   22.967561 C.3        1 MOL1        -0.1685
      19    H12     22.512406   20.797835   22.941698 H          1 MOL1         0.0832
      20    H13     20.880399   21.350244   23.223623 H          1 MOL1         0.0832
      21    O1      19.134301   21.420579   21.359173 O.3        1 MOL1        -0.5509
      22    H14     18.178652   21.434419   21.147680 H          1 MOL1         0.3779
@<TRIPOS>BOND
    1     1     2    1
    2     1     3    1
    3     1     4    1
    4     4     5    1
    5     4     6    1
    6     4     7    1
    7     7     8    1
    8     7     9    1
    9     7    10    1
   10    10    11    1
   11    10    12    1
   12    10    13    1
   13    13    14    1
   14    13    15    1
   15    15    16    1
   16    15    17    1
   17     1    18    1
   18    15    18    1
   19    18    19    1
   20    18    20    1
   21    13    21    1
   22    21    22    1
@<TRIPOS>SUBSTRUCTURE
       1 MOL1            1 RESIDUE      1      MOL     
@<SCITEGIC>MOL_PROPERTY
VConf Rank
SciTegic.value.IntegerValue
493

@<SCITEGIC>MOL_PROPERTY
Conf_Id
SciTegic.value.IntegerValue
41

@<SCITEGIC>MOL_PROPERTY
Delta U+W
SciTegic.value.DoubleValue
-2.114

@<SCITEGIC>MOL_PROPERTY
U+W
SciTegic.value.DoubleValue
4.310

@<SCITEGIC>MOL_PROPERTY
Grad RMS
SciTegic.value.DoubleValue
0.000000

@<SCITEGIC>MOL_PROPERTY
U
SciTegic.value.DoubleValue
6.598

@<SCITEGIC>MOL_PROPERTY
W
SciTegic.value.DoubleValue
-2.289

@<SCITEGIC>MOL_PROPERTY
W(PB)
SciTegic.value.DoubleValue
-4.294

@<SCITEGIC>MOL_PROPERTY
W(SA)
SciTegic.value.DoubleValue
2.005

@<SCITEGIC>MOL_PROPERTY
Valence
SciTegic.value.DoubleValue
12.082

@<SCITEGIC>MOL_PROPERTY
Coulomb
SciTegic.value.DoubleValue
-7.801

@<SCITEGIC>MOL_PROPERTY
VdW
SciTegic.value.DoubleValue
2.317

@<SCITEGIC>MOL_PROPERTY
VdW6
SciTegic.value.DoubleValue
-9.658

@<SCITEGIC>MOL_PROPERTY
VdW12
SciTegic.value.DoubleValue
11.975

@<SCITEGIC>MOL_PROPERTY
Bond
SciTegic.value.DoubleValue
0.267

@<SCITEGIC>MOL_PROPERTY
Angle
SciTegic.value.DoubleValue
3.051

@<SCITEGIC>MOL_PROPERTY
Pdih
SciTegic.value.DoubleValue
8.764

@<SCITEGIC>MOL_PROPERTY
Idih
SciTegic.value.DoubleValue
0.000

@<SCITEGIC>MOL_PROPERTY
Tether
SciTegic.value.DoubleValue
0.000

@<TRIPOS>MOLECULE
guest-5_confgen4.mol2 : confsearch ligand conformer 494
          22          22           1
SMALL
USER_CHARGES
 
@<TRIPOS>ATOM
       1    C1      19.673356   19.986167   21.164110 C.3        1 MOL1        -0.1685
       2    H1      19.196148   20.125470   20.184611 H          1 MOL1         0.0832
       3    H2      20.363747   20.831062   21.293299 H          1 MOL1         0.0832
       4    C2      20.446749   18.649012   21.128540 C.3        1 MOL1        -0.1685
       5    H3      19.735411   17.814679   21.061705 H          1 MOL1         0.0832
       6    H4      21.041534   18.612244   20.205806 H          1 MOL1         0.0832
       7    C3      21.396297   18.421965   22.325215 C.3        1 MOL1        -0.1685
       8    H5      22.231658   19.132510   22.268770 H          1 MOL1         0.0832
       9    H6      21.848468   17.427295   22.214317 H          1 MOL1         0.0832
      10    C4      20.725916   18.500459   23.723648 C.3        1 MOL1        -0.1761
      11    H7      19.844068   17.848104   23.755803 H          1 MOL1         0.0832
      12    H8      21.430666   18.082137   24.453660 H          1 MOL1         0.0832
      13    C5      20.347736   19.921077   24.216452 C.3        1 MOL1         0.1218
      14    H9      20.194987   19.847624   25.302983 H          1 MOL1         0.0789
      15    C6      19.036738   20.512140   23.635876 C.3        1 MOL1        -0.1761
      16    H10     18.227778   20.306920   24.348988 H          1 MOL1         0.0832
      17    H11     19.121278   21.606336   23.603331 H          1 MOL1         0.0832
      18    C7      18.571639   20.009785   22.246552 C.3        1 MOL1        -0.1685
      19    H12     18.122614   19.011931   22.341823 H          1 MOL1         0.0832
      20    H13     17.759461   20.666713   21.906715 H          1 MOL1         0.0832
      21    O1      21.423341   20.828844   23.992950 O.3        1 MOL1        -0.5509
      22    H14     21.144296   21.693156   24.357653 H          1 MOL1         0.3779
@<TRIPOS>BOND
    1     1     2    1
    2     1     3    1
    3     1     4    1
    4     4     5    1
    5     4     6    1
    6     4     7    1
    7     7     8    1
    8     7     9    1
    9     7    10    1
   10    10    11    1
   11    10    12    1
   12    10    13    1
   13    13    14    1
   14    13    15    1
   15    15    16    1
   16    15    17    1
   17     1    18    1
   18    15    18    1
   19    18    19    1
   20    18    20    1
   21    13    21    1
   22    21    22    1
@<TRIPOS>SUBSTRUCTURE
       1 MOL1            1 RESIDUE      1      MOL     
@<SCITEGIC>MOL_PROPERTY
VConf Rank
SciTegic.value.IntegerValue
494

@<SCITEGIC>MOL_PROPERTY
Conf_Id
SciTegic.value.IntegerValue
104

@<SCITEGIC>MOL_PROPERTY
Delta U+W
SciTegic.value.DoubleValue
-1.172

@<SCITEGIC>MOL_PROPERTY
U+W
SciTegic.value.DoubleValue
5.252

@<SCITEGIC>MOL_PROPERTY
Grad RMS
SciTegic.value.DoubleValue
0.000000

@<SCITEGIC>MOL_PROPERTY
U
SciTegic.value.DoubleValue
7.482

@<SCITEGIC>MOL_PROPERTY
W
SciTegic.value.DoubleValue
-2.230

@<SCITEGIC>MOL_PROPERTY
W(PB)
SciTegic.value.DoubleValue
-4.220

@<SCITEGIC>MOL_PROPERTY
W(SA)
SciTegic.value.DoubleValue
1.990

@<SCITEGIC>MOL_PROPERTY
Valence
SciTegic.value.DoubleValue
12.309

@<SCITEGIC>MOL_PROPERTY
Coulomb
SciTegic.value.DoubleValue
-7.084

@<SCITEGIC>MOL_PROPERTY
VdW
SciTegic.value.DoubleValue
2.258

@<SCITEGIC>MOL_PROPERTY
VdW6
SciTegic.value.DoubleValue
-9.770

@<SCITEGIC>MOL_PROPERTY
VdW12
SciTegic.value.DoubleValue
12.028

@<SCITEGIC>MOL_PROPERTY
Bond
SciTegic.value.DoubleValue
0.284

@<SCITEGIC>MOL_PROPERTY
Angle
SciTegic.value.DoubleValue
3.491

@<SCITEGIC>MOL_PROPERTY
Pdih
SciTegic.value.DoubleValue
8.535

@<SCITEGIC>MOL_PROPERTY
Idih
SciTegic.value.DoubleValue
0.000

@<SCITEGIC>MOL_PROPERTY
Tether
SciTegic.value.DoubleValue
0.000

@<TRIPOS>MOLECULE
guest-5_confgen4.mol2 : confsearch ligand conformer 495
          22          22           1
SMALL
USER_CHARGES
 
@<TRIPOS>ATOM
       1    C1      21.068405   20.872784   22.881134 C.3        1 MOL1        -0.1685
       2    H1      20.887865   20.916298   23.963721 H          1 MOL1         0.0832
       3    H2      21.754144   21.700950   22.655650 H          1 MOL1         0.0832
       4    C2      19.760616   21.113990   22.093104 C.3        1 MOL1        -0.1685
       5    H3      19.558934   22.193847   22.071147 H          1 MOL1         0.0832
       6    H4      19.911638   20.832024   21.042854 H          1 MOL1         0.0832
       7    C3      18.499154   20.409713   22.653801 C.3        1 MOL1        -0.1685
       8    H5      17.785591   20.267087   21.830515 H          1 MOL1         0.0832
       9    H6      18.001840   21.094074   23.354699 H          1 MOL1         0.0832
      10    C4      18.706453   19.057409   23.388310 C.3        1 MOL1        -0.1761
      11    H7      19.064925   19.253688   24.407097 H          1 MOL1         0.0832
      12    H8      17.723002   18.586525   23.515173 H          1 MOL1         0.0832
      13    C5      19.648483   18.029876   22.719928 C.3        1 MOL1         0.1218
      14    H9      19.385755   17.038806   23.116960 H          1 MOL1         0.0789
      15    C6      21.136481   18.268220   23.062452 C.3        1 MOL1        -0.1761
      16    H10     21.250218   18.268587   24.154297 H          1 MOL1         0.0832
      17    H11     21.712305   17.404264   22.705730 H          1 MOL1         0.0832
      18    C7      21.780065   19.555620   22.490444 C.3        1 MOL1        -0.1685
      19    H12     22.816154   19.603004   22.852363 H          1 MOL1         0.0832
      20    H13     21.852756   19.481490   21.396963 H          1 MOL1         0.0832
      21    O1      19.464758   18.026635   21.312659 O.3        1 MOL1        -0.5509
      22    H14     19.634165   18.952630   21.047856 H          1 MOL1         0.3779
@<TRIPOS>BOND
    1     1     2    1
    2     1     3    1
    3     1     4    1
    4     4     5    1
    5     4     6    1
    6     4     7    1
    7     7     8    1
    8     7     9    1
    9     7    10    1
   10    10    11    1
   11    10    12    1
   12    10    13    1
   13    13    14    1
   14    13    15    1
   15    15    16    1
   16    15    17    1
   17     1    18    1
   18    15    18    1
   19    18    19    1
   20    18    20    1
   21    13    21    1
   22    21    22    1
@<TRIPOS>SUBSTRUCTURE
       1 MOL1            1 RESIDUE      1      MOL     
@<SCITEGIC>MOL_PROPERTY
VConf Rank
SciTegic.value.IntegerValue
495

@<SCITEGIC>MOL_PROPERTY
Conf_Id
SciTegic.value.IntegerValue
99

@<SCITEGIC>MOL_PROPERTY
Delta U+W
SciTegic.value.DoubleValue
-3.852

@<SCITEGIC>MOL_PROPERTY
U+W
SciTegic.value.DoubleValue
2.572

@<SCITEGIC>MOL_PROPERTY
Grad RMS
SciTegic.value.DoubleValue
0.000000

@<SCITEGIC>MOL_PROPERTY
U
SciTegic.value.DoubleValue
3.922

@<SCITEGIC>MOL_PROPERTY
W
SciTegic.value.DoubleValue
-1.350

@<SCITEGIC>MOL_PROPERTY
W(PB)
SciTegic.value.DoubleValue
-3.345

@<SCITEGIC>MOL_PROPERTY
W(SA)
SciTegic.value.DoubleValue
1.995

@<SCITEGIC>MOL_PROPERTY
Valence
SciTegic.value.DoubleValue
12.571

@<SCITEGIC>MOL_PROPERTY
Coulomb
SciTegic.value.DoubleValue
-10.581

@<SCITEGIC>MOL_PROPERTY
VdW
SciTegic.value.DoubleValue
1.932

@<SCITEGIC>MOL_PROPERTY
VdW6
SciTegic.value.DoubleValue
-10.483

@<SCITEGIC>MOL_PROPERTY
VdW12
SciTegic.value.DoubleValue
12.415

@<SCITEGIC>MOL_PROPERTY
Bond
SciTegic.value.DoubleValue
0.268

@<SCITEGIC>MOL_PROPERTY
Angle
SciTegic.value.DoubleValue
3.728

@<SCITEGIC>MOL_PROPERTY
Pdih
SciTegic.value.DoubleValue
8.575

@<SCITEGIC>MOL_PROPERTY
Idih
SciTegic.value.DoubleValue
0.000

@<SCITEGIC>MOL_PROPERTY
Tether
SciTegic.value.DoubleValue
0.000

@<TRIPOS>MOLECULE
guest-5_confgen4.mol2 : confsearch ligand conformer 496
          22          22           1
SMALL
USER_CHARGES
 
@<TRIPOS>ATOM
       1    C1      20.717088   21.095609   22.348455 C.3        1 MOL1        -0.1685
       2    H1      20.806470   21.995294   21.724061 H          1 MOL1         0.0832
       3    H2      21.377994   21.279433   23.206049 H          1 MOL1         0.0832
       4    C2      21.238247   19.885343   21.519297 C.3        1 MOL1        -0.1685
       5    H3      21.553354   20.261214   20.536079 H          1 MOL1         0.0832
       6    H4      22.152406   19.480752   21.973911 H          1 MOL1         0.0832
       7    C3      20.224131   18.737092   21.282996 C.3        1 MOL1        -0.1685
       8    H5      20.645056   18.051654   20.534850 H          1 MOL1         0.0832
       9    H6      19.316787   19.135423   20.812221 H          1 MOL1         0.0832
      10    C4      19.841134   17.898273   22.533806 C.3        1 MOL1        -0.1761
      11    H7      18.874822   17.415143   22.339985 H          1 MOL1         0.0832
      12    H8      20.561819   17.075692   22.633657 H          1 MOL1         0.0832
      13    C5      19.763076   18.618654   23.902425 C.3        1 MOL1         0.1218
      14    H9      19.267178   17.927727   24.599188 H          1 MOL1         0.0789
      15    C6      18.960960   19.942928   23.934902 C.3        1 MOL1        -0.1761
      16    H10     17.890608   19.701464   23.906919 H          1 MOL1         0.0832
      17    H11     19.128074   20.406863   24.916143 H          1 MOL1         0.0832
      18    C7      19.248455   21.002938   22.835573 C.3        1 MOL1        -0.1685
      19    H12     18.583798   20.837342   21.978615 H          1 MOL1         0.0832
      20    H13     18.951541   21.984470   23.229478 H          1 MOL1         0.0832
      21    O1      21.073632   18.843598   24.397485 O.3        1 MOL1        -0.5509
      22    H14     21.469241   19.458994   23.748091 H          1 MOL1         0.3779
@<TRIPOS>BOND
    1     1     2    1
    2     1     3    1
    3     1     4    1
    4     4     5    1
    5     4     6    1
    6     4     7    1
    7     7     8    1
    8     7     9    1
    9     7    10    1
   10    10    11    1
   11    10    12    1
   12    10    13    1
   13    13    14    1
   14    13    15    1
   15    15    16    1
   16    15    17    1
   17     1    18    1
   18    15    18    1
   19    18    19    1
   20    18    20    1
   21    13    21    1
   22    21    22    1
@<TRIPOS>SUBSTRUCTURE
       1 MOL1            1 RESIDUE      1      MOL     
@<SCITEGIC>MOL_PROPERTY
VConf Rank
SciTegic.value.IntegerValue
496

@<SCITEGIC>MOL_PROPERTY
Conf_Id
SciTegic.value.IntegerValue
98

@<SCITEGIC>MOL_PROPERTY
Delta U+W
SciTegic.value.DoubleValue
0.930

@<SCITEGIC>MOL_PROPERTY
U+W
SciTegic.value.DoubleValue
7.353

@<SCITEGIC>MOL_PROPERTY
Grad RMS
SciTegic.value.DoubleValue
0.000000

@<SCITEGIC>MOL_PROPERTY
U
SciTegic.value.DoubleValue
8.455

@<SCITEGIC>MOL_PROPERTY
W
SciTegic.value.DoubleValue
-1.102

@<SCITEGIC>MOL_PROPERTY
W(PB)
SciTegic.value.DoubleValue
-3.101

@<SCITEGIC>MOL_PROPERTY
W(SA)
SciTegic.value.DoubleValue
2.000

@<SCITEGIC>MOL_PROPERTY
Valence
SciTegic.value.DoubleValue
15.601

@<SCITEGIC>MOL_PROPERTY
Coulomb
SciTegic.value.DoubleValue
-10.573

@<SCITEGIC>MOL_PROPERTY
VdW
SciTegic.value.DoubleValue
3.427

@<SCITEGIC>MOL_PROPERTY
VdW6
SciTegic.value.DoubleValue
-11.360

@<SCITEGIC>MOL_PROPERTY
VdW12
SciTegic.value.DoubleValue
14.787

@<SCITEGIC>MOL_PROPERTY
Bond
SciTegic.value.DoubleValue
0.471

@<SCITEGIC>MOL_PROPERTY
Angle
SciTegic.value.DoubleValue
5.445

@<SCITEGIC>MOL_PROPERTY
Pdih
SciTegic.value.DoubleValue
9.685

@<SCITEGIC>MOL_PROPERTY
Idih
SciTegic.value.DoubleValue
0.000

@<SCITEGIC>MOL_PROPERTY
Tether
SciTegic.value.DoubleValue
0.000

@<TRIPOS>MOLECULE
guest-5_confgen4.mol2 : confsearch ligand conformer 497
          22          22           1
SMALL
USER_CHARGES
 
@<TRIPOS>ATOM
       1    C1      20.541118   18.811501   24.123504 C.3        1 MOL1        -0.1685
       2    H1      20.660473   19.827947   24.520206 H          1 MOL1         0.0832
       3    H2      20.787781   18.147082   24.962800 H          1 MOL1         0.0832
       4    C2      21.565112   18.569655   22.985477 C.3        1 MOL1        -0.1685
       5    H3      22.568951   18.714099   23.407756 H          1 MOL1         0.0832
       6    H4      21.523385   17.518108   22.670626 H          1 MOL1         0.0832
       7    C3      21.430583   19.482680   21.735304 C.3        1 MOL1        -0.1685
       8    H5      20.960764   18.927835   20.912849 H          1 MOL1         0.0832
       9    H6      22.440539   19.720906   21.374926 H          1 MOL1         0.0832
      10    C4      20.660898   20.809359   21.970290 C.3        1 MOL1        -0.1761
      11    H7      21.094763   21.329095   22.833576 H          1 MOL1         0.0832
      12    H8      20.850778   21.474086   21.116786 H          1 MOL1         0.0832
      13    C5      19.123036   20.676635   22.173350 C.3        1 MOL1         0.1218
      14    H9      18.840148   21.298449   23.034970 H          1 MOL1         0.0789
      15    C6      18.593945   19.241363   22.418943 C.3        1 MOL1        -0.1761
      16    H10     17.496419   19.263072   22.423791 H          1 MOL1         0.0832
      17    H11     18.862663   18.598935   21.571792 H          1 MOL1         0.0832
      18    C7      19.061284   18.577979   23.738535 C.3        1 MOL1        -0.1685
      19    H12     18.432416   18.942993   24.562005 H          1 MOL1         0.0832
      20    H13     18.872551   17.497924   23.671211 H          1 MOL1         0.0832
      21    O1      18.470258   21.178871   21.012826 O.3        1 MOL1        -0.5509
      22    H14     17.507388   21.137228   21.189814 H          1 MOL1         0.3779
@<TRIPOS>BOND
    1     1     2    1
    2     1     3    1
    3     1     4    1
    4     4     5    1
    5     4     6    1
    6     4     7    1
    7     7     8    1
    8     7     9    1
    9     7    10    1
   10    10    11    1
   11    10    12    1
   12    10    13    1
   13    13    14    1
   14    13    15    1
   15    15    16    1
   16    15    17    1
   17     1    18    1
   18    15    18    1
   19    18    19    1
   20    18    20    1
   21    13    21    1
   22    21    22    1
@<TRIPOS>SUBSTRUCTURE
       1 MOL1            1 RESIDUE      1      MOL     
@<SCITEGIC>MOL_PROPERTY
VConf Rank
SciTegic.value.IntegerValue
497

@<SCITEGIC>MOL_PROPERTY
Conf_Id
SciTegic.value.IntegerValue
141

@<SCITEGIC>MOL_PROPERTY
Delta U+W
SciTegic.value.DoubleValue
0.000

@<SCITEGIC>MOL_PROPERTY
U+W
SciTegic.value.DoubleValue
6.423

@<SCITEGIC>MOL_PROPERTY
Grad RMS
SciTegic.value.DoubleValue
0.000000

@<SCITEGIC>MOL_PROPERTY
U
SciTegic.value.DoubleValue
8.781

@<SCITEGIC>MOL_PROPERTY
W
SciTegic.value.DoubleValue
-2.358

@<SCITEGIC>MOL_PROPERTY
W(PB)
SciTegic.value.DoubleValue
-4.373

@<SCITEGIC>MOL_PROPERTY
W(SA)
SciTegic.value.DoubleValue
2.015

@<SCITEGIC>MOL_PROPERTY
Valence
SciTegic.value.DoubleValue
13.328

@<SCITEGIC>MOL_PROPERTY
Coulomb
SciTegic.value.DoubleValue
-8.387

@<SCITEGIC>MOL_PROPERTY
VdW
SciTegic.value.DoubleValue
3.840

@<SCITEGIC>MOL_PROPERTY
VdW6
SciTegic.value.DoubleValue
-9.744

@<SCITEGIC>MOL_PROPERTY
VdW12
SciTegic.value.DoubleValue
13.584

@<SCITEGIC>MOL_PROPERTY
Bond
SciTegic.value.DoubleValue
0.436

@<SCITEGIC>MOL_PROPERTY
Angle
SciTegic.value.DoubleValue
3.478

@<SCITEGIC>MOL_PROPERTY
Pdih
SciTegic.value.DoubleValue
9.415

@<SCITEGIC>MOL_PROPERTY
Idih
SciTegic.value.DoubleValue
0.000

@<SCITEGIC>MOL_PROPERTY
Tether
SciTegic.value.DoubleValue
0.000

@<TRIPOS>MOLECULE
guest-5_confgen4.mol2 : confsearch ligand conformer 498
          22          22           1
SMALL
USER_CHARGES
 
@<TRIPOS>ATOM
       1    C1      18.596177   18.841762   23.393675 C.3        1 MOL1        -0.1685
       2    H1      18.519872   18.190329   22.512528 H          1 MOL1         0.0832
       3    H2      17.811360   18.508613   24.086480 H          1 MOL1         0.0832
       4    C2      18.299243   20.314325   23.020790 C.3        1 MOL1        -0.1685
       5    H3      17.235712   20.401549   22.759738 H          1 MOL1         0.0832
       6    H4      18.442454   20.949927   23.905312 H          1 MOL1         0.0832
       7    C3      19.131773   20.877758   21.846155 C.3        1 MOL1        -0.1685
       8    H5      18.878953   21.940034   21.725830 H          1 MOL1         0.0832
       9    H6      18.822696   20.388636   20.912243 H          1 MOL1         0.0832
      10    C4      20.665928   20.750580   22.011606 C.3        1 MOL1        -0.1761
      11    H7      21.135823   21.380564   21.244922 H          1 MOL1         0.0832
      12    H8      20.986081   21.157469   22.979563 H          1 MOL1         0.0832
      13    C5      21.165733   19.298206   21.842988 C.3        1 MOL1         0.1218
      14    H9      20.517941   18.794047   21.111529 H          1 MOL1         0.0789
      15    C6      21.167587   18.464724   23.144756 C.3        1 MOL1        -0.1761
      16    H10     21.221729   17.406003   22.860103 H          1 MOL1         0.0832
      17    H11     22.087431   18.672174   23.707749 H          1 MOL1         0.0832
      18    C7      19.961860   18.662698   24.097159 C.3        1 MOL1        -0.1685
      19    H12     19.908540   17.790573   24.763027 H          1 MOL1         0.0832
      20    H13     20.149841   19.522895   24.753996 H          1 MOL1         0.0832
      21    O1      22.494386   19.326631   21.335944 O.3        1 MOL1        -0.5509
      22    H14     22.457938   19.793013   20.474679 H          1 MOL1         0.3779
@<TRIPOS>BOND
    1     1     2    1
    2     1     3    1
    3     1     4    1
    4     4     5    1
    5     4     6    1
    6     4     7    1
    7     7     8    1
    8     7     9    1
    9     7    10    1
   10    10    11    1
   11    10    12    1
   12    10    13    1
   13    13    14    1
   14    13    15    1
   15    15    16    1
   16    15    17    1
   17     1    18    1
   18    15    18    1
   19    18    19    1
   20    18    20    1
   21    13    21    1
   22    21    22    1
@<TRIPOS>SUBSTRUCTURE
       1 MOL1            1 RESIDUE      1      MOL     
@<SCITEGIC>MOL_PROPERTY
VConf Rank
SciTegic.value.IntegerValue
498

@<SCITEGIC>MOL_PROPERTY
Conf_Id
SciTegic.value.IntegerValue
144

@<SCITEGIC>MOL_PROPERTY
Delta U+W
SciTegic.value.DoubleValue
-3.291

@<SCITEGIC>MOL_PROPERTY
U+W
SciTegic.value.DoubleValue
3.132

@<SCITEGIC>MOL_PROPERTY
Grad RMS
SciTegic.value.DoubleValue
0.000000

@<SCITEGIC>MOL_PROPERTY
U
SciTegic.value.DoubleValue
5.411

@<SCITEGIC>MOL_PROPERTY
W
SciTegic.value.DoubleValue
-2.279

@<SCITEGIC>MOL_PROPERTY
W(PB)
SciTegic.value.DoubleValue
-4.300

@<SCITEGIC>MOL_PROPERTY
W(SA)
SciTegic.value.DoubleValue
2.021

@<SCITEGIC>MOL_PROPERTY
Valence
SciTegic.value.DoubleValue
11.909

@<SCITEGIC>MOL_PROPERTY
Coulomb
SciTegic.value.DoubleValue
-8.733

@<SCITEGIC>MOL_PROPERTY
VdW
SciTegic.value.DoubleValue
2.236

@<SCITEGIC>MOL_PROPERTY
VdW6
SciTegic.value.DoubleValue
-8.936

@<SCITEGIC>MOL_PROPERTY
VdW12
SciTegic.value.DoubleValue
11.172

@<SCITEGIC>MOL_PROPERTY
Bond
SciTegic.value.DoubleValue
0.223

@<SCITEGIC>MOL_PROPERTY
Angle
SciTegic.value.DoubleValue
2.457

@<SCITEGIC>MOL_PROPERTY
Pdih
SciTegic.value.DoubleValue
9.228

@<SCITEGIC>MOL_PROPERTY
Idih
SciTegic.value.DoubleValue
0.000

@<SCITEGIC>MOL_PROPERTY
Tether
SciTegic.value.DoubleValue
0.000

@<TRIPOS>MOLECULE
guest-5_confgen4.mol2 : confsearch ligand conformer 499
          22          22           1
SMALL
USER_CHARGES
 
@<TRIPOS>ATOM
       1    C1      18.883344   20.640310   23.492783 C.3        1 MOL1        -0.1685
       2    H1      18.126376   21.393854   23.749809 H          1 MOL1         0.0832
       3    H2      19.297437   20.287713   24.447186 H          1 MOL1         0.0832
       4    C2      19.974042   21.329520   22.639881 C.3        1 MOL1        -0.1685
       5    H3      19.643297   21.378366   21.593461 H          1 MOL1         0.0832
       6    H4      20.071971   22.374359   22.965026 H          1 MOL1         0.0832
       7    C3      21.374769   20.674757   22.711794 C.3        1 MOL1        -0.1685
       8    H5      21.898603   21.048289   23.602292 H          1 MOL1         0.0832
       9    H6      21.961288   21.025877   21.851718 H          1 MOL1         0.0832
      10    C4      21.408305   19.126919   22.746599 C.3        1 MOL1        -0.1761
      11    H7      22.420068   18.806489   22.463527 H          1 MOL1         0.0832
      12    H8      21.266663   18.786478   23.780491 H          1 MOL1         0.0832
      13    C5      20.373161   18.432188   21.833681 C.3        1 MOL1         0.1218
      14    H9      20.224715   19.030454   20.923455 H          1 MOL1         0.0789
      15    C6      19.014680   18.213335   22.537677 C.3        1 MOL1        -0.1761
      16    H10     18.421292   17.504750   21.944442 H          1 MOL1         0.0832
      17    H11     19.179457   17.731279   23.510074 H          1 MOL1         0.0832
      18    C7      18.167473   19.491631   22.742412 C.3        1 MOL1        -0.1685
      19    H12     17.816641   19.855872   21.767132 H          1 MOL1         0.0832
      20    H13     17.262949   19.217689   23.302393 H          1 MOL1         0.0832
      21    O1      20.884836   17.157825   21.467074 O.3        1 MOL1        -0.5509
      22    H14     21.004708   16.657672   22.300523 H          1 MOL1         0.3779
@<TRIPOS>BOND
    1     1     2    1
    2     1     3    1
    3     1     4    1
    4     4     5    1
    5     4     6    1
    6     4     7    1
    7     7     8    1
    8     7     9    1
    9     7    10    1
   10    10    11    1
   11    10    12    1
   12    10    13    1
   13    13    14    1
   14    13    15    1
   15    15    16    1
   16    15    17    1
   17     1    18    1
   18    15    18    1
   19    18    19    1
   20    18    20    1
   21    13    21    1
   22    21    22    1
@<TRIPOS>SUBSTRUCTURE
       1 MOL1            1 RESIDUE      1      MOL     
@<SCITEGIC>MOL_PROPERTY
VConf Rank
SciTegic.value.IntegerValue
499

@<SCITEGIC>MOL_PROPERTY
Conf_Id
SciTegic.value.IntegerValue
76

@<SCITEGIC>MOL_PROPERTY
Delta U+W
SciTegic.value.DoubleValue
-3.175

@<SCITEGIC>MOL_PROPERTY
U+W
SciTegic.value.DoubleValue
3.248

@<SCITEGIC>MOL_PROPERTY
Grad RMS
SciTegic.value.DoubleValue
0.000000

@<SCITEGIC>MOL_PROPERTY
U
SciTegic.value.DoubleValue
5.336

@<SCITEGIC>MOL_PROPERTY
W
SciTegic.value.DoubleValue
-2.088

@<SCITEGIC>MOL_PROPERTY
W(PB)
SciTegic.value.DoubleValue
-4.098

@<SCITEGIC>MOL_PROPERTY
W(SA)
SciTegic.value.DoubleValue
2.010

@<SCITEGIC>MOL_PROPERTY
Valence
SciTegic.value.DoubleValue
12.390

@<SCITEGIC>MOL_PROPERTY
Coulomb
SciTegic.value.DoubleValue
-9.270

@<SCITEGIC>MOL_PROPERTY
VdW
SciTegic.value.DoubleValue
2.216

@<SCITEGIC>MOL_PROPERTY
VdW6
SciTegic.value.DoubleValue
-8.967

@<SCITEGIC>MOL_PROPERTY
VdW12
SciTegic.value.DoubleValue
11.183

@<SCITEGIC>MOL_PROPERTY
Bond
SciTegic.value.DoubleValue
0.218

@<SCITEGIC>MOL_PROPERTY
Angle
SciTegic.value.DoubleValue
2.426

@<SCITEGIC>MOL_PROPERTY
Pdih
SciTegic.value.DoubleValue
9.745

@<SCITEGIC>MOL_PROPERTY
Idih
SciTegic.value.DoubleValue
0.000

@<SCITEGIC>MOL_PROPERTY
Tether
SciTegic.value.DoubleValue
0.000

@<TRIPOS>MOLECULE
guest-5_confgen4.mol2 : confsearch ligand conformer 500
          22          22           1
SMALL
USER_CHARGES
 
@<TRIPOS>ATOM
       1    C1      19.668698   18.625646   21.110198 C.3        1 MOL1        -0.1685
       2    H1      18.784836   18.751590   20.470115 H          1 MOL1         0.0832
       3    H2      20.310548   17.899707   20.592649 H          1 MOL1         0.0832
       4    C2      19.208447   18.017556   22.456701 C.3        1 MOL1        -0.1685
       5    H3      18.228547   18.431708   22.730111 H          1 MOL1         0.0832
       6    H4      19.040601   16.942716   22.303956 H          1 MOL1         0.0832
       7    C3      20.194408   18.209767   23.632490 C.3        1 MOL1        -0.1685
       8    H5      21.235220   18.126128   23.291096 H          1 MOL1         0.0832
       9    H6      20.040373   17.387866   24.344560 H          1 MOL1         0.0832
      10    C4      19.969127   19.541339   24.392913 C.3        1 MOL1        -0.1761
      11    H7      18.907851   19.630291   24.658039 H          1 MOL1         0.0832
      12    H8      20.508598   19.494824   25.348016 H          1 MOL1         0.0832
      13    C5      20.408596   20.829268   23.659970 C.3        1 MOL1         0.1218
      14    H9      20.018487   21.675258   24.244103 H          1 MOL1         0.0789
      15    C6      19.866997   20.983742   22.216607 C.3        1 MOL1        -0.1761
      16    H10     18.770261   20.939093   22.224008 H          1 MOL1         0.0832
      17    H11     20.119560   21.995754   21.874802 H          1 MOL1         0.0832
      18    C7      20.432045   19.969291   21.188586 C.3        1 MOL1        -0.1685
      19    H12     20.410391   20.427908   20.190776 H          1 MOL1         0.0832
      20    H13     21.492444   19.774082   21.395679 H          1 MOL1         0.0832
      21    O1      21.830495   20.908180   23.660445 O.3        1 MOL1        -0.5509
      22    H14     22.065690   21.706097   23.144408 H          1 MOL1         0.3779
@<TRIPOS>BOND
    1     1     2    1
    2     1     3    1
    3     1     4    1
    4     4     5    1
    5     4     6    1
    6     4     7    1
    7     7     8    1
    8     7     9    1
    9     7    10    1
   10    10    11    1
   11    10    12    1
   12    10    13    1
   13    13    14    1
   14    13    15    1
   15    15    16    1
   16    15    17    1
   17     1    18    1
   18    15    18    1
   19    18    19    1
   20    18    20    1
   21    13    21    1
   22    21    22    1
@<TRIPOS>SUBSTRUCTURE
       1 MOL1            1 RESIDUE      1      MOL     
@<SCITEGIC>MOL_PROPERTY
VConf Rank
SciTegic.value.IntegerValue
500

@<SCITEGIC>MOL_PROPERTY
Conf_Id
SciTegic.value.IntegerValue
95

@<SCITEGIC>MOL_PROPERTY
Delta U+W
SciTegic.value.DoubleValue
-2.289

@<SCITEGIC>MOL_PROPERTY
U+W
SciTegic.value.DoubleValue
4.134

@<SCITEGIC>MOL_PROPERTY
Grad RMS
SciTegic.value.DoubleValue
0.000000

@<SCITEGIC>MOL_PROPERTY
U
SciTegic.value.DoubleValue
6.373

@<SCITEGIC>MOL_PROPERTY
W
SciTegic.value.DoubleValue
-2.240

@<SCITEGIC>MOL_PROPERTY
W(PB)
SciTegic.value.DoubleValue
-4.254

@<SCITEGIC>MOL_PROPERTY
W(SA)
SciTegic.value.DoubleValue
2.015

@<SCITEGIC>MOL_PROPERTY
Valence
SciTegic.value.DoubleValue
12.093

@<SCITEGIC>MOL_PROPERTY
Coulomb
SciTegic.value.DoubleValue
-8.058

@<SCITEGIC>MOL_PROPERTY
VdW
SciTegic.value.DoubleValue
2.339

@<SCITEGIC>MOL_PROPERTY
VdW6
SciTegic.value.DoubleValue
-9.683

@<SCITEGIC>MOL_PROPERTY
VdW12
SciTegic.value.DoubleValue
12.022

@<SCITEGIC>MOL_PROPERTY
Bond
SciTegic.value.DoubleValue
0.268

@<SCITEGIC>MOL_PROPERTY
Angle
SciTegic.value.DoubleValue
3.005

@<SCITEGIC>MOL_PROPERTY
Pdih
SciTegic.value.DoubleValue
8.820

@<SCITEGIC>MOL_PROPERTY
Idih
SciTegic.value.DoubleValue
0.000

@<SCITEGIC>MOL_PROPERTY
Tether
SciTegic.value.DoubleValue
0.000

@<TRIPOS>MOLECULE
guest-5_confgen4.mol2 : confsearch ligand conformer 501
          22          22           1
SMALL
USER_CHARGES
 
@<TRIPOS>ATOM
       1    C1      21.292674   18.571465   23.696121 C.3        1 MOL1        -0.1685
       2    H1      21.263995   18.315240   24.763960 H          1 MOL1         0.0832
       3    H2      22.175472   18.058832   23.290332 H          1 MOL1         0.0832
       4    C2      21.499099   20.099844   23.570521 C.3        1 MOL1        -0.1685
       5    H3      20.957228   20.609863   24.378442 H          1 MOL1         0.0832
       6    H4      22.561593   20.314493   23.748932 H          1 MOL1         0.0832
       7    C3      21.085728   20.707369   22.209803 C.3        1 MOL1        -0.1685
       8    H5      21.334885   20.027477   21.383676 H          1 MOL1         0.0832
       9    H6      21.681705   21.615618   22.047566 H          1 MOL1         0.0832
      10    C4      19.589937   21.109729   22.164798 C.3        1 MOL1        -0.1761
      11    H7      19.354807   21.716841   23.048555 H          1 MOL1         0.0832
      12    H8      19.430763   21.773490   21.305108 H          1 MOL1         0.0832
      13    C5      18.573528   19.948208   22.078092 C.3        1 MOL1         0.1218
      14    H9      17.576730   20.386320   22.231553 H          1 MOL1         0.0789
      15    C6      18.750715   18.838112   23.144219 C.3        1 MOL1        -0.1761
      16    H10     18.694541   19.272680   24.150441 H          1 MOL1         0.0832
      17    H11     17.886996   18.166106   23.059213 H          1 MOL1         0.0832
      18    C7      20.039324   17.986800   23.002108 C.3        1 MOL1        -0.1685
      19    H12     19.852561   16.991072   23.426211 H          1 MOL1         0.0832
      20    H13     20.256632   17.813122   21.939925 H          1 MOL1         0.0832
      21    O1      18.613097   19.382621   20.771402 O.3        1 MOL1        -0.5509
      22    H14     18.514325   20.124515   20.140511 H          1 MOL1         0.3779
@<TRIPOS>BOND
    1     1     2    1
    2     1     3    1
    3     1     4    1
    4     4     5    1
    5     4     6    1
    6     4     7    1
    7     7     8    1
    8     7     9    1
    9     7    10    1
   10    10    11    1
   11    10    12    1
   12    10    13    1
   13    13    14    1
   14    13    15    1
   15    15    16    1
   16    15    17    1
   17     1    18    1
   18    15    18    1
   19    18    19    1
   20    18    20    1
   21    13    21    1
   22    21    22    1
@<TRIPOS>SUBSTRUCTURE
       1 MOL1            1 RESIDUE      1      MOL     
@<SCITEGIC>MOL_PROPERTY
VConf Rank
SciTegic.value.IntegerValue
501

@<SCITEGIC>MOL_PROPERTY
Conf_Id
SciTegic.value.IntegerValue
41

@<SCITEGIC>MOL_PROPERTY
Delta U+W
SciTegic.value.DoubleValue
-2.114

@<SCITEGIC>MOL_PROPERTY
U+W
SciTegic.value.DoubleValue
4.310

@<SCITEGIC>MOL_PROPERTY
Grad RMS
SciTegic.value.DoubleValue
0.000000

@<SCITEGIC>MOL_PROPERTY
U
SciTegic.value.DoubleValue
6.598

@<SCITEGIC>MOL_PROPERTY
W
SciTegic.value.DoubleValue
-2.289

@<SCITEGIC>MOL_PROPERTY
W(PB)
SciTegic.value.DoubleValue
-4.294

@<SCITEGIC>MOL_PROPERTY
W(SA)
SciTegic.value.DoubleValue
2.005

@<SCITEGIC>MOL_PROPERTY
Valence
SciTegic.value.DoubleValue
12.082

@<SCITEGIC>MOL_PROPERTY
Coulomb
SciTegic.value.DoubleValue
-7.801

@<SCITEGIC>MOL_PROPERTY
VdW
SciTegic.value.DoubleValue
2.317

@<SCITEGIC>MOL_PROPERTY
VdW6
SciTegic.value.DoubleValue
-9.658

@<SCITEGIC>MOL_PROPERTY
VdW12
SciTegic.value.DoubleValue
11.975

@<SCITEGIC>MOL_PROPERTY
Bond
SciTegic.value.DoubleValue
0.267

@<SCITEGIC>MOL_PROPERTY
Angle
SciTegic.value.DoubleValue
3.051

@<SCITEGIC>MOL_PROPERTY
Pdih
SciTegic.value.DoubleValue
8.764

@<SCITEGIC>MOL_PROPERTY
Idih
SciTegic.value.DoubleValue
0.000

@<SCITEGIC>MOL_PROPERTY
Tether
SciTegic.value.DoubleValue
0.000

@<TRIPOS>MOLECULE
guest-5_confgen4.mol2 : confsearch ligand conformer 502
          22          22           1
SMALL
USER_CHARGES
 
@<TRIPOS>ATOM
       1    C1      19.799546   17.897869   22.646732 C.3        1 MOL1        -0.1685
       2    H1      19.424906   16.887857   22.432091 H          1 MOL1         0.0832
       3    H2      20.804439   17.769683   23.072097 H          1 MOL1         0.0832
       4    C2      18.848655   18.546926   23.677226 C.3        1 MOL1        -0.1685
       5    H3      17.868800   18.723176   23.213112 H          1 MOL1         0.0832
       6    H4      18.671877   17.830770   24.491123 H          1 MOL1         0.0832
       7    C3      19.370040   19.862592   24.295612 C.3        1 MOL1        -0.1685
       8    H5      20.235357   19.647366   24.936544 H          1 MOL1         0.0832
       9    H6      18.594369   20.250387   24.969463 H          1 MOL1         0.0832
      10    C4      19.729739   20.974971   23.273645 C.3        1 MOL1        -0.1761
      11    H7      18.892607   21.136805   22.582792 H          1 MOL1         0.0832
      12    H8      19.840187   21.914306   23.830452 H          1 MOL1         0.0832
      13    C5      21.039895   20.762632   22.472124 C.3        1 MOL1         0.1218
      14    H9      21.315171   21.741282   22.052903 H          1 MOL1         0.0789
      15    C6      20.946754   19.788969   21.268611 C.3        1 MOL1        -0.1761
      16    H10     20.769066   20.384796   20.363913 H          1 MOL1         0.0832
      17    H11     21.925589   19.316131   21.114407 H          1 MOL1         0.0832
      18    C7      19.864320   18.682246   21.317606 C.3        1 MOL1        -0.1685
      19    H12     18.879601   19.113322   21.091958 H          1 MOL1         0.0832
      20    H13     20.069904   17.975337   20.502319 H          1 MOL1         0.0832
      21    O1      22.094012   20.353544   23.339536 O.3        1 MOL1        -0.5509
      22    H14     22.899054   20.274661   22.788542 H          1 MOL1         0.3779
@<TRIPOS>BOND
    1     1     2    1
    2     1     3    1
    3     1     4    1
    4     4     5    1
    5     4     6    1
    6     4     7    1
    7     7     8    1
    8     7     9    1
    9     7    10    1
   10    10    11    1
   11    10    12    1
   12    10    13    1
   13    13    14    1
   14    13    15    1
   15    15    16    1
   16    15    17    1
   17     1    18    1
   18    15    18    1
   19    18    19    1
   20    18    20    1
   21    13    21    1
   22    21    22    1
@<TRIPOS>SUBSTRUCTURE
       1 MOL1            1 RESIDUE      1      MOL     
@<SCITEGIC>MOL_PROPERTY
VConf Rank
SciTegic.value.IntegerValue
502

@<SCITEGIC>MOL_PROPERTY
Conf_Id
SciTegic.value.IntegerValue
104

@<SCITEGIC>MOL_PROPERTY
Delta U+W
SciTegic.value.DoubleValue
-1.172

@<SCITEGIC>MOL_PROPERTY
U+W
SciTegic.value.DoubleValue
5.252

@<SCITEGIC>MOL_PROPERTY
Grad RMS
SciTegic.value.DoubleValue
0.000000

@<SCITEGIC>MOL_PROPERTY
U
SciTegic.value.DoubleValue
7.482

@<SCITEGIC>MOL_PROPERTY
W
SciTegic.value.DoubleValue
-2.230

@<SCITEGIC>MOL_PROPERTY
W(PB)
SciTegic.value.DoubleValue
-4.220

@<SCITEGIC>MOL_PROPERTY
W(SA)
SciTegic.value.DoubleValue
1.990

@<SCITEGIC>MOL_PROPERTY
Valence
SciTegic.value.DoubleValue
12.309

@<SCITEGIC>MOL_PROPERTY
Coulomb
SciTegic.value.DoubleValue
-7.084

@<SCITEGIC>MOL_PROPERTY
VdW
SciTegic.value.DoubleValue
2.258

@<SCITEGIC>MOL_PROPERTY
VdW6
SciTegic.value.DoubleValue
-9.770

@<SCITEGIC>MOL_PROPERTY
VdW12
SciTegic.value.DoubleValue
12.028

@<SCITEGIC>MOL_PROPERTY
Bond
SciTegic.value.DoubleValue
0.284

@<SCITEGIC>MOL_PROPERTY
Angle
SciTegic.value.DoubleValue
3.491

@<SCITEGIC>MOL_PROPERTY
Pdih
SciTegic.value.DoubleValue
8.535

@<SCITEGIC>MOL_PROPERTY
Idih
SciTegic.value.DoubleValue
0.000

@<SCITEGIC>MOL_PROPERTY
Tether
SciTegic.value.DoubleValue
0.000

@<TRIPOS>MOLECULE
guest-5_confgen4.mol2 : confsearch ligand conformer 503
          22          22           1
SMALL
USER_CHARGES
 
@<TRIPOS>ATOM
       1    C1      20.571913   20.760981   21.634085 C.3        1 MOL1        -0.1685
       2    H1      20.205686   20.226283   20.747260 H          1 MOL1         0.0832
       3    H2      21.042656   21.680287   21.259628 H          1 MOL1         0.0832
       4    C2      21.657032   19.938442   22.365817 C.3        1 MOL1        -0.1685
       5    H3      22.609256   20.060940   21.831483 H          1 MOL1         0.0832
       6    H4      21.831855   20.370124   23.360012 H          1 MOL1         0.0832
       7    C3      21.377957   18.419142   22.490385 C.3        1 MOL1        -0.1685
       8    H5      21.925109   18.035400   23.362556 H          1 MOL1         0.0832
       9    H6      21.821415   17.912181   21.622477 H          1 MOL1         0.0832
      10    C4      19.893360   17.973698   22.583952 C.3        1 MOL1        -0.1761
      11    H7      19.451284   17.985165   21.579267 H          1 MOL1         0.0832
      12    H8      19.874425   16.920989   22.894513 H          1 MOL1         0.0832
      13    C5      18.976937   18.772823   23.538703 C.3        1 MOL1         0.1218
      14    H9      18.124409   18.126044   23.791200 H          1 MOL1         0.0789
      15    C6      18.393621   20.045929   22.885087 C.3        1 MOL1        -0.1761
      16    H10     17.866007   19.759160   21.966148 H          1 MOL1         0.0832
      17    H11     17.623182   20.451535   23.553781 H          1 MOL1         0.0832
      18    C7      19.399431   21.176295   22.554314 C.3        1 MOL1        -0.1685
      19    H12     18.844730   21.986451   22.061704 H          1 MOL1         0.0832
      20    H13     19.791205   21.610117   23.484255 H          1 MOL1         0.0832
      21    O1      19.670296   19.108494   24.730653 O.3        1 MOL1        -0.5509
      22    H14     20.451941   19.607042   24.419579 H          1 MOL1         0.3779
@<TRIPOS>BOND
    1     1     2    1
    2     1     3    1
    3     1     4    1
    4     4     5    1
    5     4     6    1
    6     4     7    1
    7     7     8    1
    8     7     9    1
    9     7    10    1
   10    10    11    1
   11    10    12    1
   12    10    13    1
   13    13    14    1
   14    13    15    1
   15    15    16    1
   16    15    17    1
   17     1    18    1
   18    15    18    1
   19    18    19    1
   20    18    20    1
   21    13    21    1
   22    21    22    1
@<TRIPOS>SUBSTRUCTURE
       1 MOL1            1 RESIDUE      1      MOL     
@<SCITEGIC>MOL_PROPERTY
VConf Rank
SciTegic.value.IntegerValue
503

@<SCITEGIC>MOL_PROPERTY
Conf_Id
SciTegic.value.IntegerValue
99

@<SCITEGIC>MOL_PROPERTY
Delta U+W
SciTegic.value.DoubleValue
-3.852

@<SCITEGIC>MOL_PROPERTY
U+W
SciTegic.value.DoubleValue
2.572

@<SCITEGIC>MOL_PROPERTY
Grad RMS
SciTegic.value.DoubleValue
0.000000

@<SCITEGIC>MOL_PROPERTY
U
SciTegic.value.DoubleValue
3.922

@<SCITEGIC>MOL_PROPERTY
W
SciTegic.value.DoubleValue
-1.350

@<SCITEGIC>MOL_PROPERTY
W(PB)
SciTegic.value.DoubleValue
-3.345

@<SCITEGIC>MOL_PROPERTY
W(SA)
SciTegic.value.DoubleValue
1.995

@<SCITEGIC>MOL_PROPERTY
Valence
SciTegic.value.DoubleValue
12.571

@<SCITEGIC>MOL_PROPERTY
Coulomb
SciTegic.value.DoubleValue
-10.581

@<SCITEGIC>MOL_PROPERTY
VdW
SciTegic.value.DoubleValue
1.932

@<SCITEGIC>MOL_PROPERTY
VdW6
SciTegic.value.DoubleValue
-10.483

@<SCITEGIC>MOL_PROPERTY
VdW12
SciTegic.value.DoubleValue
12.415

@<SCITEGIC>MOL_PROPERTY
Bond
SciTegic.value.DoubleValue
0.268

@<SCITEGIC>MOL_PROPERTY
Angle
SciTegic.value.DoubleValue
3.728

@<SCITEGIC>MOL_PROPERTY
Pdih
SciTegic.value.DoubleValue
8.575

@<SCITEGIC>MOL_PROPERTY
Idih
SciTegic.value.DoubleValue
0.000

@<SCITEGIC>MOL_PROPERTY
Tether
SciTegic.value.DoubleValue
0.000

@<TRIPOS>MOLECULE
guest-5_confgen4.mol2 : confsearch ligand conformer 504
          22          22           1
SMALL
USER_CHARGES
 
@<TRIPOS>ATOM
       1    C1      20.449723   18.601257   21.389967 C.3        1 MOL1        -0.1685
       2    H1      21.087741   17.856071   20.895071 H          1 MOL1         0.0832
       3    H2      19.625736   18.780400   20.686399 H          1 MOL1         0.0832
       4    C2      21.288312   19.899750   21.575805 C.3        1 MOL1        -0.1685
       5    H3      22.289243   19.716645   21.161197 H          1 MOL1         0.0832
       6    H4      20.871885   20.710142   20.962692 H          1 MOL1         0.0832
       7    C3      21.464450   20.391215   23.035321 C.3        1 MOL1        -0.1685
       8    H5      22.223435   21.185310   23.044241 H          1 MOL1         0.0832
       9    H6      21.897263   19.589426   23.646365 H          1 MOL1         0.0832
      10    C4      20.187843   20.946212   23.726033 C.3        1 MOL1        -0.1761
      11    H7      20.331299   20.884311   24.812463 H          1 MOL1         0.0832
      12    H8      20.112095   22.019070   23.504143 H          1 MOL1         0.0832
      13    C5      18.825334   20.299822   23.374029 C.3        1 MOL1         0.1218
      14    H9      18.098604   20.663181   24.114710 H          1 MOL1         0.0789
      15    C6      18.770827   18.752649   23.411814 C.3        1 MOL1        -0.1761
      16    H10     18.746563   18.431481   24.461101 H          1 MOL1         0.0832
      17    H11     17.803683   18.445413   22.992011 H          1 MOL1         0.0832
      18    C7      19.894217   17.960209   22.687359 C.3        1 MOL1        -0.1685
      19    H12     20.717602   17.763385   23.385117 H          1 MOL1         0.0832
      20    H13     19.498160   16.965805   22.440329 H          1 MOL1         0.0832
      21    O1      18.393967   20.760500   22.103225 O.3        1 MOL1        -0.5509
      22    H14     19.067889   20.413648   21.484795 H          1 MOL1         0.3779
@<TRIPOS>BOND
    1     1     2    1
    2     1     3    1
    3     1     4    1
    4     4     5    1
    5     4     6    1
    6     4     7    1
    7     7     8    1
    8     7     9    1
    9     7    10    1
   10    10    11    1
   11    10    12    1
   12    10    13    1
   13    13    14    1
   14    13    15    1
   15    15    16    1
   16    15    17    1
   17     1    18    1
   18    15    18    1
   19    18    19    1
   20    18    20    1
   21    13    21    1
   22    21    22    1
@<TRIPOS>SUBSTRUCTURE
       1 MOL1            1 RESIDUE      1      MOL     
@<SCITEGIC>MOL_PROPERTY
VConf Rank
SciTegic.value.IntegerValue
504

@<SCITEGIC>MOL_PROPERTY
Conf_Id
SciTegic.value.IntegerValue
98

@<SCITEGIC>MOL_PROPERTY
Delta U+W
SciTegic.value.DoubleValue
0.930

@<SCITEGIC>MOL_PROPERTY
U+W
SciTegic.value.DoubleValue
7.353

@<SCITEGIC>MOL_PROPERTY
Grad RMS
SciTegic.value.DoubleValue
0.000000

@<SCITEGIC>MOL_PROPERTY
U
SciTegic.value.DoubleValue
8.455

@<SCITEGIC>MOL_PROPERTY
W
SciTegic.value.DoubleValue
-1.102

@<SCITEGIC>MOL_PROPERTY
W(PB)
SciTegic.value.DoubleValue
-3.101

@<SCITEGIC>MOL_PROPERTY
W(SA)
SciTegic.value.DoubleValue
2.000

@<SCITEGIC>MOL_PROPERTY
Valence
SciTegic.value.DoubleValue
15.601

@<SCITEGIC>MOL_PROPERTY
Coulomb
SciTegic.value.DoubleValue
-10.573

@<SCITEGIC>MOL_PROPERTY
VdW
SciTegic.value.DoubleValue
3.427

@<SCITEGIC>MOL_PROPERTY
VdW6
SciTegic.value.DoubleValue
-11.360

@<SCITEGIC>MOL_PROPERTY
VdW12
SciTegic.value.DoubleValue
14.787

@<SCITEGIC>MOL_PROPERTY
Bond
SciTegic.value.DoubleValue
0.471

@<SCITEGIC>MOL_PROPERTY
Angle
SciTegic.value.DoubleValue
5.445

@<SCITEGIC>MOL_PROPERTY
Pdih
SciTegic.value.DoubleValue
9.685

@<SCITEGIC>MOL_PROPERTY
Idih
SciTegic.value.DoubleValue
0.000

@<SCITEGIC>MOL_PROPERTY
Tether
SciTegic.value.DoubleValue
0.000

@<TRIPOS>MOLECULE
guest-5_confgen4.mol2 : confsearch ligand conformer 505
          22          22           1
SMALL
USER_CHARGES
 
@<TRIPOS>ATOM
       1    C1      18.492855   19.419214   21.866347 C.3        1 MOL1        -0.1685
       2    H1      18.075519   19.997131   22.700986 H          1 MOL1         0.0832
       3    H2      17.653065   19.271444   21.173795 H          1 MOL1         0.0832
       4    C2      18.964116   18.032436   22.373222 C.3        1 MOL1        -0.1685
       5    H3      18.091944   17.525551   22.808261 H          1 MOL1         0.0832
       6    H4      19.272164   17.414032   21.519228 H          1 MOL1         0.0832
       7    C3      20.098898   18.038699   23.434766 C.3        1 MOL1        -0.1685
       8    H5      21.053880   17.767266   22.966420 H          1 MOL1         0.0832
       9    H6      19.898501   17.233928   24.155057 H          1 MOL1         0.0832
      10    C4      20.264336   19.371507   24.211917 C.3        1 MOL1        -0.1761
      11    H7      19.292676   19.670714   24.624201 H          1 MOL1         0.0832
      12    H8      20.896668   19.182605   25.089903 H          1 MOL1         0.0832
      13    C5      20.864861   20.559527   23.404546 C.3        1 MOL1         0.1218
      14    H9      20.253952   21.450788   23.608290 H          1 MOL1         0.0789
      15    C6      20.939493   20.365652   21.869261 C.3        1 MOL1        -0.1761
      16    H10     21.487423   21.209694   21.430601 H          1 MOL1         0.0832
      17    H11     21.545329   19.481324   21.637927 H          1 MOL1         0.0832
      18    C7      19.573652   20.259303   21.146091 C.3        1 MOL1        -0.1685
      19    H12     19.173517   21.270676   20.991713 H          1 MOL1         0.0832
      20    H13     19.742245   19.845559   20.142566 H          1 MOL1         0.0832
      21    O1      22.188913   20.796539   23.869184 O.3        1 MOL1        -0.5509
      22    H14     22.521246   21.582215   23.387057 H          1 MOL1         0.3779
@<TRIPOS>BOND
    1     1     2    1
    2     1     3    1
    3     1     4    1
    4     4     5    1
    5     4     6    1
    6     4     7    1
    7     7     8    1
    8     7     9    1
    9     7    10    1
   10    10    11    1
   11    10    12    1
   12    10    13    1
   13    13    14    1
   14    13    15    1
   15    15    16    1
   16    15    17    1
   17     1    18    1
   18    15    18    1
   19    18    19    1
   20    18    20    1
   21    13    21    1
   22    21    22    1
@<TRIPOS>SUBSTRUCTURE
       1 MOL1            1 RESIDUE      1      MOL     
@<SCITEGIC>MOL_PROPERTY
VConf Rank
SciTegic.value.IntegerValue
505

@<SCITEGIC>MOL_PROPERTY
Conf_Id
SciTegic.value.IntegerValue
141

@<SCITEGIC>MOL_PROPERTY
Delta U+W
SciTegic.value.DoubleValue
0.000

@<SCITEGIC>MOL_PROPERTY
U+W
SciTegic.value.DoubleValue
6.423

@<SCITEGIC>MOL_PROPERTY
Grad RMS
SciTegic.value.DoubleValue
0.000000

@<SCITEGIC>MOL_PROPERTY
U
SciTegic.value.DoubleValue
8.781

@<SCITEGIC>MOL_PROPERTY
W
SciTegic.value.DoubleValue
-2.358

@<SCITEGIC>MOL_PROPERTY
W(PB)
SciTegic.value.DoubleValue
-4.373

@<SCITEGIC>MOL_PROPERTY
W(SA)
SciTegic.value.DoubleValue
2.015

@<SCITEGIC>MOL_PROPERTY
Valence
SciTegic.value.DoubleValue
13.328

@<SCITEGIC>MOL_PROPERTY
Coulomb
SciTegic.value.DoubleValue
-8.387

@<SCITEGIC>MOL_PROPERTY
VdW
SciTegic.value.DoubleValue
3.840

@<SCITEGIC>MOL_PROPERTY
VdW6
SciTegic.value.DoubleValue
-9.744

@<SCITEGIC>MOL_PROPERTY
VdW12
SciTegic.value.DoubleValue
13.584

@<SCITEGIC>MOL_PROPERTY
Bond
SciTegic.value.DoubleValue
0.436

@<SCITEGIC>MOL_PROPERTY
Angle
SciTegic.value.DoubleValue
3.478

@<SCITEGIC>MOL_PROPERTY
Pdih
SciTegic.value.DoubleValue
9.415

@<SCITEGIC>MOL_PROPERTY
Idih
SciTegic.value.DoubleValue
0.000

@<SCITEGIC>MOL_PROPERTY
Tether
SciTegic.value.DoubleValue
0.000

@<TRIPOS>MOLECULE
guest-5_confgen4.mol2 : confsearch ligand conformer 506
          22          22           1
SMALL
USER_CHARGES
 
@<TRIPOS>ATOM
       1    C1      21.373452   20.618696   22.322159 C.3        1 MOL1        -0.1685
       2    H1      20.693432   21.471386   22.191381 H          1 MOL1         0.0832
       3    H2      22.389496   21.019968   22.205801 H          1 MOL1         0.0832
       4    C2      21.155971   19.561948   21.212366 C.3        1 MOL1        -0.1685
       5    H3      21.494770   19.983803   20.256276 H          1 MOL1         0.0832
       6    H4      21.804037   18.695505   21.402542 H          1 MOL1         0.0832
       7    C3      19.697240   19.080607   21.037030 C.3        1 MOL1        -0.1685
       8    H5      19.686762   18.290597   20.273746 H          1 MOL1         0.0832
       9    H6      19.089348   19.899620   20.628808 H          1 MOL1         0.0832
      10    C4      19.029717   18.534356   22.322799 C.3        1 MOL1        -0.1761
      11    H7      18.106054   18.020970   22.024861 H          1 MOL1         0.0832
      12    H8      19.663871   17.772715   22.794761 H          1 MOL1         0.0832
      13    C5      18.680156   19.649686   23.333479 C.3        1 MOL1         0.1218
      14    H9      18.423828   20.557692   22.768975 H          1 MOL1         0.0789
      15    C6      19.815346   19.998148   24.323032 C.3        1 MOL1        -0.1761
      16    H10     19.587847   20.981149   24.755237 H          1 MOL1         0.0832
      17    H11     19.796687   19.289305   25.161664 H          1 MOL1         0.0832
      18    C7      21.253072   20.028818   23.746797 C.3        1 MOL1        -0.1685
      19    H12     21.880311   20.616878   24.430596 H          1 MOL1         0.0832
      20    H13     21.675546   19.014878   23.759096 H          1 MOL1         0.0832
      21    O1      17.545554   19.244131   24.089404 O.3        1 MOL1        -0.5509
      22    H14     16.816560   19.101654   23.449961 H          1 MOL1         0.3779
@<TRIPOS>BOND
    1     1     2    1
    2     1     3    1
    3     1     4    1
    4     4     5    1
    5     4     6    1
    6     4     7    1
    7     7     8    1
    8     7     9    1
    9     7    10    1
   10    10    11    1
   11    10    12    1
   12    10    13    1
   13    13    14    1
   14    13    15    1
   15    15    16    1
   16    15    17    1
   17     1    18    1
   18    15    18    1
   19    18    19    1
   20    18    20    1
   21    13    21    1
   22    21    22    1
@<TRIPOS>SUBSTRUCTURE
       1 MOL1            1 RESIDUE      1      MOL     
@<SCITEGIC>MOL_PROPERTY
VConf Rank
SciTegic.value.IntegerValue
506

@<SCITEGIC>MOL_PROPERTY
Conf_Id
SciTegic.value.IntegerValue
144

@<SCITEGIC>MOL_PROPERTY
Delta U+W
SciTegic.value.DoubleValue
-3.291

@<SCITEGIC>MOL_PROPERTY
U+W
SciTegic.value.DoubleValue
3.132

@<SCITEGIC>MOL_PROPERTY
Grad RMS
SciTegic.value.DoubleValue
0.000000

@<SCITEGIC>MOL_PROPERTY
U
SciTegic.value.DoubleValue
5.411

@<SCITEGIC>MOL_PROPERTY
W
SciTegic.value.DoubleValue
-2.279

@<SCITEGIC>MOL_PROPERTY
W(PB)
SciTegic.value.DoubleValue
-4.300

@<SCITEGIC>MOL_PROPERTY
W(SA)
SciTegic.value.DoubleValue
2.021

@<SCITEGIC>MOL_PROPERTY
Valence
SciTegic.value.DoubleValue
11.909

@<SCITEGIC>MOL_PROPERTY
Coulomb
SciTegic.value.DoubleValue
-8.733

@<SCITEGIC>MOL_PROPERTY
VdW
SciTegic.value.DoubleValue
2.236

@<SCITEGIC>MOL_PROPERTY
VdW6
SciTegic.value.DoubleValue
-8.936

@<SCITEGIC>MOL_PROPERTY
VdW12
SciTegic.value.DoubleValue
11.172

@<SCITEGIC>MOL_PROPERTY
Bond
SciTegic.value.DoubleValue
0.223

@<SCITEGIC>MOL_PROPERTY
Angle
SciTegic.value.DoubleValue
2.457

@<SCITEGIC>MOL_PROPERTY
Pdih
SciTegic.value.DoubleValue
9.228

@<SCITEGIC>MOL_PROPERTY
Idih
SciTegic.value.DoubleValue
0.000

@<SCITEGIC>MOL_PROPERTY
Tether
SciTegic.value.DoubleValue
0.000

@<TRIPOS>MOLECULE
guest-5_confgen4.mol2 : confsearch ligand conformer 507
          22          22           1
SMALL
USER_CHARGES
 
@<TRIPOS>ATOM
       1    C1      20.019829   17.897523   23.159444 C.3        1 MOL1        -0.1685
       2    H1      19.881964   16.943778   23.686942 H          1 MOL1         0.0832
       3    H2      20.707460   17.688664   22.328646 H          1 MOL1         0.0832
       4    C2      20.644249   18.906766   24.151210 C.3        1 MOL1        -0.1685
       5    H3      19.852257   19.346029   24.772958 H          1 MOL1         0.0832
       6    H4      21.296048   18.362814   24.848543 H          1 MOL1         0.0832
       7    C3      21.479581   20.035600   23.500150 C.3        1 MOL1        -0.1685
       8    H5      22.495452   19.663641   23.308921 H          1 MOL1         0.0832
       9    H6      21.591833   20.845255   24.234232 H          1 MOL1         0.0832
      10    C4      20.925720   20.625569   22.179804 C.3        1 MOL1        -0.1761
      11    H7      21.407725   21.599342   22.018848 H          1 MOL1         0.0832
      12    H8      21.244437   19.993457   21.340907 H          1 MOL1         0.0832
      13    C5      19.390657   20.796641   22.136100 C.3        1 MOL1         0.1218
      14    H9      19.020698   21.058791   23.137537 H          1 MOL1         0.0789
      15    C6      18.667115   19.527321   21.631829 C.3        1 MOL1        -0.1761
      16    H10     17.629695   19.788936   21.383941 H          1 MOL1         0.0832
      17    H11     19.127639   19.191453   20.693641 H          1 MOL1         0.0832
      18    C7      18.636143   18.347621   22.632360 C.3        1 MOL1        -0.1685
      19    H12     17.989172   18.607337   23.481420 H          1 MOL1         0.0832
      20    H13     18.153959   17.492385   22.139554 H          1 MOL1         0.0832
      21    O1      19.084656   21.857761   21.241337 O.3        1 MOL1        -0.5509
      22    H14     19.429783   21.588944   20.365104 H          1 MOL1         0.3779
@<TRIPOS>BOND
    1     1     2    1
    2     1     3    1
    3     1     4    1
    4     4     5    1
    5     4     6    1
    6     4     7    1
    7     7     8    1
    8     7     9    1
    9     7    10    1
   10    10    11    1
   11    10    12    1
   12    10    13    1
   13    13    14    1
   14    13    15    1
   15    15    16    1
   16    15    17    1
   17     1    18    1
   18    15    18    1
   19    18    19    1
   20    18    20    1
   21    13    21    1
   22    21    22    1
@<TRIPOS>SUBSTRUCTURE
       1 MOL1            1 RESIDUE      1      MOL     
@<SCITEGIC>MOL_PROPERTY
VConf Rank
SciTegic.value.IntegerValue
507

@<SCITEGIC>MOL_PROPERTY
Conf_Id
SciTegic.value.IntegerValue
76

@<SCITEGIC>MOL_PROPERTY
Delta U+W
SciTegic.value.DoubleValue
-3.175

@<SCITEGIC>MOL_PROPERTY
U+W
SciTegic.value.DoubleValue
3.248

@<SCITEGIC>MOL_PROPERTY
Grad RMS
SciTegic.value.DoubleValue
0.000000

@<SCITEGIC>MOL_PROPERTY
U
SciTegic.value.DoubleValue
5.336

@<SCITEGIC>MOL_PROPERTY
W
SciTegic.value.DoubleValue
-2.088

@<SCITEGIC>MOL_PROPERTY
W(PB)
SciTegic.value.DoubleValue
-4.098

@<SCITEGIC>MOL_PROPERTY
W(SA)
SciTegic.value.DoubleValue
2.010

@<SCITEGIC>MOL_PROPERTY
Valence
SciTegic.value.DoubleValue
12.390

@<SCITEGIC>MOL_PROPERTY
Coulomb
SciTegic.value.DoubleValue
-9.270

@<SCITEGIC>MOL_PROPERTY
VdW
SciTegic.value.DoubleValue
2.216

@<SCITEGIC>MOL_PROPERTY
VdW6
SciTegic.value.DoubleValue
-8.967

@<SCITEGIC>MOL_PROPERTY
VdW12
SciTegic.value.DoubleValue
11.183

@<SCITEGIC>MOL_PROPERTY
Bond
SciTegic.value.DoubleValue
0.218

@<SCITEGIC>MOL_PROPERTY
Angle
SciTegic.value.DoubleValue
2.426

@<SCITEGIC>MOL_PROPERTY
Pdih
SciTegic.value.DoubleValue
9.745

@<SCITEGIC>MOL_PROPERTY
Idih
SciTegic.value.DoubleValue
0.000

@<SCITEGIC>MOL_PROPERTY
Tether
SciTegic.value.DoubleValue
0.000

@<TRIPOS>MOLECULE
guest-5_confgen4.mol2 : confsearch ligand conformer 508
          22          22           1
SMALL
USER_CHARGES
 
@<TRIPOS>ATOM
       1    C1      18.711113   18.845112   21.607723 C.3        1 MOL1        -0.1685
       2    H1      18.826824   18.137495   20.775455 H          1 MOL1         0.0832
       3    H2      17.628627   18.986250   21.730680 H          1 MOL1         0.0832
       4    C2      19.348153   20.192060   21.189888 C.3        1 MOL1        -0.1685
       5    H3      20.243899   20.001466   20.583429 H          1 MOL1         0.0832
       6    H4      18.645028   20.707068   20.521184 H          1 MOL1         0.0832
       7    C3      19.710562   21.135490   22.360418 C.3        1 MOL1        -0.1685
       8    H5      18.957506   21.080002   23.158330 H          1 MOL1         0.0832
       9    H6      19.683392   22.168070   21.987146 H          1 MOL1         0.0832
      10    C4      21.130660   20.874605   22.923748 C.3        1 MOL1        -0.1761
      11    H7      21.850995   20.864597   22.095780 H          1 MOL1         0.0832
      12    H8      21.418869   21.725521   23.554851 H          1 MOL1         0.0832
      13    C5      21.309383   19.583466   23.754479 C.3        1 MOL1         0.1218
      14    H9      22.389580   19.458559   23.917792 H          1 MOL1         0.0789
      15    C6      20.798057   18.287473   23.076663 C.3        1 MOL1        -0.1761
      16    H10     21.294399   18.154158   22.106740 H          1 MOL1         0.0832
      17    H11     21.123268   17.440385   23.694294 H          1 MOL1         0.0832
      18    C7      19.259670   18.198029   22.901784 C.3        1 MOL1        -0.1685
      19    H12     18.964915   17.139945   22.900621 H          1 MOL1         0.0832
      20    H13     18.755331   18.639177   23.771537 H          1 MOL1         0.0832
      21    O1      20.685455   19.751224   25.023571 O.3        1 MOL1        -0.5509
      22    H14     20.776533   18.897657   25.494115 H          1 MOL1         0.3779
@<TRIPOS>BOND
    1     1     2    1
    2     1     3    1
    3     1     4    1
    4     4     5    1
    5     4     6    1
    6     4     7    1
    7     7     8    1
    8     7     9    1
    9     7    10    1
   10    10    11    1
   11    10    12    1
   12    10    13    1
   13    13    14    1
   14    13    15    1
   15    15    16    1
   16    15    17    1
   17     1    18    1
   18    15    18    1
   19    18    19    1
   20    18    20    1
   21    13    21    1
   22    21    22    1
@<TRIPOS>SUBSTRUCTURE
       1 MOL1            1 RESIDUE      1      MOL     
@<SCITEGIC>MOL_PROPERTY
VConf Rank
SciTegic.value.IntegerValue
508

@<SCITEGIC>MOL_PROPERTY
Conf_Id
SciTegic.value.IntegerValue
95

@<SCITEGIC>MOL_PROPERTY
Delta U+W
SciTegic.value.DoubleValue
-2.289

@<SCITEGIC>MOL_PROPERTY
U+W
SciTegic.value.DoubleValue
4.134

@<SCITEGIC>MOL_PROPERTY
Grad RMS
SciTegic.value.DoubleValue
0.000000

@<SCITEGIC>MOL_PROPERTY
U
SciTegic.value.DoubleValue
6.373

@<SCITEGIC>MOL_PROPERTY
W
SciTegic.value.DoubleValue
-2.240

@<SCITEGIC>MOL_PROPERTY
W(PB)
SciTegic.value.DoubleValue
-4.254

@<SCITEGIC>MOL_PROPERTY
W(SA)
SciTegic.value.DoubleValue
2.015

@<SCITEGIC>MOL_PROPERTY
Valence
SciTegic.value.DoubleValue
12.093

@<SCITEGIC>MOL_PROPERTY
Coulomb
SciTegic.value.DoubleValue
-8.058

@<SCITEGIC>MOL_PROPERTY
VdW
SciTegic.value.DoubleValue
2.339

@<SCITEGIC>MOL_PROPERTY
VdW6
SciTegic.value.DoubleValue
-9.683

@<SCITEGIC>MOL_PROPERTY
VdW12
SciTegic.value.DoubleValue
12.022

@<SCITEGIC>MOL_PROPERTY
Bond
SciTegic.value.DoubleValue
0.268

@<SCITEGIC>MOL_PROPERTY
Angle
SciTegic.value.DoubleValue
3.005

@<SCITEGIC>MOL_PROPERTY
Pdih
SciTegic.value.DoubleValue
8.820

@<SCITEGIC>MOL_PROPERTY
Idih
SciTegic.value.DoubleValue
0.000

@<SCITEGIC>MOL_PROPERTY
Tether
SciTegic.value.DoubleValue
0.000

@<TRIPOS>MOLECULE
guest-5_confgen4.mol2 : confsearch ligand conformer 509
          22          22           1
SMALL
USER_CHARGES
 
@<TRIPOS>ATOM
       1    C1      20.658538   18.183385   23.796806 C.3        1 MOL1        -0.1685
       2    H1      21.146490   18.238099   24.779488 H          1 MOL1         0.0832
       3    H2      20.554264   17.112504   23.575155 H          1 MOL1         0.0832
       4    C2      21.603592   18.821704   22.750980 C.3        1 MOL1        -0.1685
       5    H3      22.128199   19.673888   23.203804 H          1 MOL1         0.0832
       6    H4      22.386560   18.089849   22.509840 H          1 MOL1         0.0832
       7    C3      20.919697   19.275553   21.440322 C.3        1 MOL1        -0.1685
       8    H5      20.132004   18.569879   21.143028 H          1 MOL1         0.0832
       9    H6      21.670071   19.250425   20.638615 H          1 MOL1         0.0832
      10    C4      20.366588   20.720655   21.524346 C.3        1 MOL1        -0.1761
      11    H7      21.153250   21.384468   21.905673 H          1 MOL1         0.0832
      12    H8      20.154639   21.075011   20.507247 H          1 MOL1         0.0832
      13    C5      19.095845   20.915727   22.382772 C.3        1 MOL1         0.1218
      14    H9      18.941923   22.000101   22.480444 H          1 MOL1         0.0789
      15    C6      19.176274   20.337383   23.817827 C.3        1 MOL1        -0.1761
      16    H10     20.026473   20.779493   24.352794 H          1 MOL1         0.0832
      17    H11     18.278362   20.672142   24.353101 H          1 MOL1         0.0832
      18    C7      19.238988   18.790033   23.902778 C.3        1 MOL1        -0.1685
      19    H12     18.806856   18.471786   24.861004 H          1 MOL1         0.0832
      20    H13     18.593424   18.347513   23.132685 H          1 MOL1         0.0832
      21    O1      17.973909   20.368459   21.696732 O.3        1 MOL1        -0.5509
      22    H14     17.980389   20.751759   20.796052 H          1 MOL1         0.3779
@<TRIPOS>BOND
    1     1     2    1
    2     1     3    1
    3     1     4    1
    4     4     5    1
    5     4     6    1
    6     4     7    1
    7     7     8    1
    8     7     9    1
    9     7    10    1
   10    10    11    1
   11    10    12    1
   12    10    13    1
   13    13    14    1
   14    13    15    1
   15    15    16    1
   16    15    17    1
   17     1    18    1
   18    15    18    1
   19    18    19    1
   20    18    20    1
   21    13    21    1
   22    21    22    1
@<TRIPOS>SUBSTRUCTURE
       1 MOL1            1 RESIDUE      1      MOL     
@<SCITEGIC>MOL_PROPERTY
VConf Rank
SciTegic.value.IntegerValue
509

@<SCITEGIC>MOL_PROPERTY
Conf_Id
SciTegic.value.IntegerValue
41

@<SCITEGIC>MOL_PROPERTY
Delta U+W
SciTegic.value.DoubleValue
-2.114

@<SCITEGIC>MOL_PROPERTY
U+W
SciTegic.value.DoubleValue
4.310

@<SCITEGIC>MOL_PROPERTY
Grad RMS
SciTegic.value.DoubleValue
0.000000

@<SCITEGIC>MOL_PROPERTY
U
SciTegic.value.DoubleValue
6.598

@<SCITEGIC>MOL_PROPERTY
W
SciTegic.value.DoubleValue
-2.289

@<SCITEGIC>MOL_PROPERTY
W(PB)
SciTegic.value.DoubleValue
-4.294

@<SCITEGIC>MOL_PROPERTY
W(SA)
SciTegic.value.DoubleValue
2.005

@<SCITEGIC>MOL_PROPERTY
Valence
SciTegic.value.DoubleValue
12.082

@<SCITEGIC>MOL_PROPERTY
Coulomb
SciTegic.value.DoubleValue
-7.801

@<SCITEGIC>MOL_PROPERTY
VdW
SciTegic.value.DoubleValue
2.317

@<SCITEGIC>MOL_PROPERTY
VdW6
SciTegic.value.DoubleValue
-9.658

@<SCITEGIC>MOL_PROPERTY
VdW12
SciTegic.value.DoubleValue
11.975

@<SCITEGIC>MOL_PROPERTY
Bond
SciTegic.value.DoubleValue
0.267

@<SCITEGIC>MOL_PROPERTY
Angle
SciTegic.value.DoubleValue
3.051

@<SCITEGIC>MOL_PROPERTY
Pdih
SciTegic.value.DoubleValue
8.764

@<SCITEGIC>MOL_PROPERTY
Idih
SciTegic.value.DoubleValue
0.000

@<SCITEGIC>MOL_PROPERTY
Tether
SciTegic.value.DoubleValue
0.000

@<TRIPOS>MOLECULE
guest-5_confgen4.mol2 : confsearch ligand conformer 510
          22          22           1
SMALL
USER_CHARGES
 
@<TRIPOS>ATOM
       1    C1      19.517451   18.115119   23.370205 C.3        1 MOL1        -0.1685
       2    H1      18.915788   17.257325   23.699963 H          1 MOL1         0.0832
       3    H2      20.565917   17.788909   23.408714 H          1 MOL1         0.0832
       4    C2      19.269646   19.275972   24.359346 C.3        1 MOL1        -0.1685
       5    H3      18.233833   19.628043   24.260757 H          1 MOL1         0.0832
       6    H4      19.360100   18.889465   25.383548 H          1 MOL1         0.0832
       7    C3      20.236641   20.470406   24.206153 C.3        1 MOL1        -0.1685
       8    H5      21.246054   20.164928   24.512190 H          1 MOL1         0.0832
       9    H6      19.933828   21.244984   24.923410 H          1 MOL1         0.0832
      10    C4      20.280651   21.106377   22.790247 C.3        1 MOL1        -0.1761
      11    H7      19.263787   21.341279   22.451032 H          1 MOL1         0.0832
      12    H8      20.794910   22.072185   22.875897 H          1 MOL1         0.0832
      13    C5      21.022802   20.288965   21.701632 C.3        1 MOL1         0.1218
      14    H9      21.243866   20.985727   20.880090 H          1 MOL1         0.0789
      15    C6      20.223452   19.119021   21.071226 C.3        1 MOL1        -0.1761
      16    H10     19.761115   19.484916   20.145252 H          1 MOL1         0.0832
      17    H11     20.925150   18.336755   20.753183 H          1 MOL1         0.0832
      18    C7      19.106770   18.466144   21.923090 C.3        1 MOL1        -0.1685
      19    H12     18.219824   19.113906   21.935098 H          1 MOL1         0.0832
      20    H13     18.791580   17.545045   21.414258 H          1 MOL1         0.0832
      21    O1      22.266135   19.805250   22.202691 O.3        1 MOL1        -0.5509
      22    H14     22.704588   19.334908   21.464825 H          1 MOL1         0.3779
@<TRIPOS>BOND
    1     1     2    1
    2     1     3    1
    3     1     4    1
    4     4     5    1
    5     4     6    1
    6     4     7    1
    7     7     8    1
    8     7     9    1
    9     7    10    1
   10    10    11    1
   11    10    12    1
   12    10    13    1
   13    13    14    1
   14    13    15    1
   15    15    16    1
   16    15    17    1
   17     1    18    1
   18    15    18    1
   19    18    19    1
   20    18    20    1
   21    13    21    1
   22    21    22    1
@<TRIPOS>SUBSTRUCTURE
       1 MOL1            1 RESIDUE      1      MOL     
@<SCITEGIC>MOL_PROPERTY
VConf Rank
SciTegic.value.IntegerValue
510

@<SCITEGIC>MOL_PROPERTY
Conf_Id
SciTegic.value.IntegerValue
104

@<SCITEGIC>MOL_PROPERTY
Delta U+W
SciTegic.value.DoubleValue
-1.172

@<SCITEGIC>MOL_PROPERTY
U+W
SciTegic.value.DoubleValue
5.252

@<SCITEGIC>MOL_PROPERTY
Grad RMS
SciTegic.value.DoubleValue
0.000000

@<SCITEGIC>MOL_PROPERTY
U
SciTegic.value.DoubleValue
7.482

@<SCITEGIC>MOL_PROPERTY
W
SciTegic.value.DoubleValue
-2.230

@<SCITEGIC>MOL_PROPERTY
W(PB)
SciTegic.value.DoubleValue
-4.220

@<SCITEGIC>MOL_PROPERTY
W(SA)
SciTegic.value.DoubleValue
1.990

@<SCITEGIC>MOL_PROPERTY
Valence
SciTegic.value.DoubleValue
12.309

@<SCITEGIC>MOL_PROPERTY
Coulomb
SciTegic.value.DoubleValue
-7.084

@<SCITEGIC>MOL_PROPERTY
VdW
SciTegic.value.DoubleValue
2.258

@<SCITEGIC>MOL_PROPERTY
VdW6
SciTegic.value.DoubleValue
-9.770

@<SCITEGIC>MOL_PROPERTY
VdW12
SciTegic.value.DoubleValue
12.028

@<SCITEGIC>MOL_PROPERTY
Bond
SciTegic.value.DoubleValue
0.284

@<SCITEGIC>MOL_PROPERTY
Angle
SciTegic.value.DoubleValue
3.491

@<SCITEGIC>MOL_PROPERTY
Pdih
SciTegic.value.DoubleValue
8.535

@<SCITEGIC>MOL_PROPERTY
Idih
SciTegic.value.DoubleValue
0.000

@<SCITEGIC>MOL_PROPERTY
Tether
SciTegic.value.DoubleValue
0.000

@<TRIPOS>MOLECULE
guest-5_confgen4.mol2 : confsearch ligand conformer 511
          22          22           1
SMALL
USER_CHARGES
 
@<TRIPOS>ATOM
       1    C1      20.310809   20.978134   21.825533 C.3        1 MOL1        -0.1685
       2    H1      21.389247   20.797958   21.720696 H          1 MOL1         0.0832
       3    H2      20.117341   21.944513   21.340124 H          1 MOL1         0.0832
       4    C2      19.915004   21.109145   23.314042 C.3        1 MOL1        -0.1685
       5    H3      20.172652   22.120587   23.657336 H          1 MOL1         0.0832
       6    H4      18.822773   21.047583   23.406663 H          1 MOL1         0.0832
       7    C3      20.585525   20.098394   24.278644 C.3        1 MOL1        -0.1685
       8    H5      19.937257   19.973307   25.156948 H          1 MOL1         0.0832
       9    H6      21.512190   20.546704   24.662363 H          1 MOL1         0.0832
      10    C4      20.944383   18.699937   23.707030 C.3        1 MOL1        -0.1761
      11    H7      21.871313   18.777604   23.124172 H          1 MOL1         0.0832
      12    H8      21.189428   18.041776   24.550700 H          1 MOL1         0.0832
      13    C5      19.872665   17.995585   22.843728 C.3        1 MOL1         0.1218
      14    H9      20.096795   16.919277   22.858097 H          1 MOL1         0.0789
      15    C6      19.907301   18.439381   21.363825 C.3        1 MOL1        -0.1761
      16    H10     20.917665   18.269853   20.969507 H          1 MOL1         0.0832
      17    H11     19.250693   17.771613   20.790940 H          1 MOL1         0.0832
      18    C7      19.493320   19.902811   21.070938 C.3        1 MOL1        -0.1685
      19    H12     19.609097   20.075557   19.992298 H          1 MOL1         0.0832
      20    H13     18.422728   20.035482   21.277605 H          1 MOL1         0.0832
      21    O1      18.578349   18.204596   23.387079 O.3        1 MOL1        -0.5509
      22    H14     18.487174   19.177725   23.418589 H          1 MOL1         0.3779
@<TRIPOS>BOND
    1     1     2    1
    2     1     3    1
    3     1     4    1
    4     4     5    1
    5     4     6    1
    6     4     7    1
    7     7     8    1
    8     7     9    1
    9     7    10    1
   10    10    11    1
   11    10    12    1
   12    10    13    1
   13    13    14    1
   14    13    15    1
   15    15    16    1
   16    15    17    1
   17     1    18    1
   18    15    18    1
   19    18    19    1
   20    18    20    1
   21    13    21    1
   22    21    22    1
@<TRIPOS>SUBSTRUCTURE
       1 MOL1            1 RESIDUE      1      MOL     
@<SCITEGIC>MOL_PROPERTY
VConf Rank
SciTegic.value.IntegerValue
511

@<SCITEGIC>MOL_PROPERTY
Conf_Id
SciTegic.value.IntegerValue
99

@<SCITEGIC>MOL_PROPERTY
Delta U+W
SciTegic.value.DoubleValue
-3.852

@<SCITEGIC>MOL_PROPERTY
U+W
SciTegic.value.DoubleValue
2.572

@<SCITEGIC>MOL_PROPERTY
Grad RMS
SciTegic.value.DoubleValue
0.000000

@<SCITEGIC>MOL_PROPERTY
U
SciTegic.value.DoubleValue
3.922

@<SCITEGIC>MOL_PROPERTY
W
SciTegic.value.DoubleValue
-1.350

@<SCITEGIC>MOL_PROPERTY
W(PB)
SciTegic.value.DoubleValue
-3.345

@<SCITEGIC>MOL_PROPERTY
W(SA)
SciTegic.value.DoubleValue
1.995

@<SCITEGIC>MOL_PROPERTY
Valence
SciTegic.value.DoubleValue
12.571

@<SCITEGIC>MOL_PROPERTY
Coulomb
SciTegic.value.DoubleValue
-10.581

@<SCITEGIC>MOL_PROPERTY
VdW
SciTegic.value.DoubleValue
1.932

@<SCITEGIC>MOL_PROPERTY
VdW6
SciTegic.value.DoubleValue
-10.483

@<SCITEGIC>MOL_PROPERTY
VdW12
SciTegic.value.DoubleValue
12.415

@<SCITEGIC>MOL_PROPERTY
Bond
SciTegic.value.DoubleValue
0.268

@<SCITEGIC>MOL_PROPERTY
Angle
SciTegic.value.DoubleValue
3.728

@<SCITEGIC>MOL_PROPERTY
Pdih
SciTegic.value.DoubleValue
8.575

@<SCITEGIC>MOL_PROPERTY
Idih
SciTegic.value.DoubleValue
0.000

@<SCITEGIC>MOL_PROPERTY
Tether
SciTegic.value.DoubleValue
0.000

@<TRIPOS>MOLECULE
guest-5_confgen4.mol2 : confsearch ligand conformer 512
          22          22           1
SMALL
USER_CHARGES
 
@<TRIPOS>ATOM
       1    C1      21.508889   19.528041   21.829104 C.3        1 MOL1        -0.1685
       2    H1      22.087430   19.316938   20.919150 H          1 MOL1         0.0832
       3    H2      22.245670   19.901854   22.552619 H          1 MOL1         0.0832
       4    C2      20.899150   18.185706   22.329312 C.3        1 MOL1        -0.1685
       5    H3      21.213912   17.393575   21.635956 H          1 MOL1         0.0832
       6    H4      21.339418   17.907074   23.296050 H          1 MOL1         0.0832
       7    C3      19.353087   18.138053   22.430154 C.3        1 MOL1        -0.1685
       8    H5      19.049049   17.096452   22.601486 H          1 MOL1         0.0832
       9    H6      18.910552   18.398410   21.460646 H          1 MOL1         0.0832
      10    C4      18.716144   19.009101   23.548371 C.3        1 MOL1        -0.1761
      11    H7      17.670241   19.203269   23.277948 H          1 MOL1         0.0832
      12    H8      18.671659   18.412765   24.469457 H          1 MOL1         0.0832
      13    C5      19.390392   20.358521   23.898534 C.3        1 MOL1         0.1218
      14    H9      18.682445   20.915100   24.529252 H          1 MOL1         0.0789
      15    C6      19.746504   21.276952   22.703623 C.3        1 MOL1        -0.1761
      16    H10     18.822419   21.739353   22.333498 H          1 MOL1         0.0832
      17    H11     20.350471   22.107292   23.093182 H          1 MOL1         0.0832
      18    C7      20.494697   20.651322   21.493831 C.3        1 MOL1        -0.1685
      19    H12     19.767976   20.286420   20.757428 H          1 MOL1         0.0832
      20    H13     21.030478   21.458610   20.976191 H          1 MOL1         0.0832
      21    O1      20.551002   20.122254   24.679818 O.3        1 MOL1        -0.5509
      22    H14     21.144286   19.628840   24.078576 H          1 MOL1         0.3779
@<TRIPOS>BOND
    1     1     2    1
    2     1     3    1
    3     1     4    1
    4     4     5    1
    5     4     6    1
    6     4     7    1
    7     7     8    1
    8     7     9    1
    9     7    10    1
   10    10    11    1
   11    10    12    1
   12    10    13    1
   13    13    14    1
   14    13    15    1
   15    15    16    1
   16    15    17    1
   17     1    18    1
   18    15    18    1
   19    18    19    1
   20    18    20    1
   21    13    21    1
   22    21    22    1
@<TRIPOS>SUBSTRUCTURE
       1 MOL1            1 RESIDUE      1      MOL     
@<SCITEGIC>MOL_PROPERTY
VConf Rank
SciTegic.value.IntegerValue
512

@<SCITEGIC>MOL_PROPERTY
Conf_Id
SciTegic.value.IntegerValue
98

@<SCITEGIC>MOL_PROPERTY
Delta U+W
SciTegic.value.DoubleValue
0.930

@<SCITEGIC>MOL_PROPERTY
U+W
SciTegic.value.DoubleValue
7.353

@<SCITEGIC>MOL_PROPERTY
Grad RMS
SciTegic.value.DoubleValue
0.000000

@<SCITEGIC>MOL_PROPERTY
U
SciTegic.value.DoubleValue
8.455

@<SCITEGIC>MOL_PROPERTY
W
SciTegic.value.DoubleValue
-1.102

@<SCITEGIC>MOL_PROPERTY
W(PB)
SciTegic.value.DoubleValue
-3.101

@<SCITEGIC>MOL_PROPERTY
W(SA)
SciTegic.value.DoubleValue
2.000

@<SCITEGIC>MOL_PROPERTY
Valence
SciTegic.value.DoubleValue
15.601

@<SCITEGIC>MOL_PROPERTY
Coulomb
SciTegic.value.DoubleValue
-10.573

@<SCITEGIC>MOL_PROPERTY
VdW
SciTegic.value.DoubleValue
3.427

@<SCITEGIC>MOL_PROPERTY
VdW6
SciTegic.value.DoubleValue
-11.360

@<SCITEGIC>MOL_PROPERTY
VdW12
SciTegic.value.DoubleValue
14.787

@<SCITEGIC>MOL_PROPERTY
Bond
SciTegic.value.DoubleValue
0.471

@<SCITEGIC>MOL_PROPERTY
Angle
SciTegic.value.DoubleValue
5.445

@<SCITEGIC>MOL_PROPERTY
Pdih
SciTegic.value.DoubleValue
9.685

@<SCITEGIC>MOL_PROPERTY
Idih
SciTegic.value.DoubleValue
0.000

@<SCITEGIC>MOL_PROPERTY
Tether
SciTegic.value.DoubleValue
0.000

@<TRIPOS>MOLECULE
guest-5_confgen4.mol2 : confsearch ligand conformer 513
          22          22           1
SMALL
USER_CHARGES
 
@<TRIPOS>ATOM
       1    C1      18.734607   20.679663   22.672444 C.3        1 MOL1        -0.1685
       2    H1      18.261478   20.084962   21.880446 H          1 MOL1         0.0832
       3    H2      18.019199   21.484141   22.890893 H          1 MOL1         0.0832
       4    C2      20.043822   21.315135   22.139258 C.3        1 MOL1        -0.1685
       5    H3      19.779458   21.943096   21.277486 H          1 MOL1         0.0832
       6    H4      20.452949   22.001485   22.893024 H          1 MOL1         0.0832
       7    C3      21.155465   20.325229   21.693182 C.3        1 MOL1        -0.1685
       8    H5      21.941856   20.273202   22.457314 H          1 MOL1         0.0832
       9    H6      21.650490   20.743252   20.806142 H          1 MOL1         0.0832
      10    C4      20.663586   18.892065   21.358806 C.3        1 MOL1        -0.1761
      11    H7      19.834808   18.953950   20.642619 H          1 MOL1         0.0832
      12    H8      21.464516   18.369883   20.818228 H          1 MOL1         0.0832
      13    C5      20.225580   18.022590   22.573727 C.3        1 MOL1         0.1218
      14    H9      19.270467   17.541034   22.318917 H          1 MOL1         0.0789
      15    C6      20.043918   18.776184   23.915127 C.3        1 MOL1        -0.1761
      16    H10     19.856910   18.044225   24.711571 H          1 MOL1         0.0832
      17    H11     20.984610   19.266299   24.193470 H          1 MOL1         0.0832
      18    C7      18.893346   19.813086   23.943855 C.3        1 MOL1        -0.1685
      19    H12     17.945050   19.286982   24.119247 H          1 MOL1         0.0832
      20    H13     19.038389   20.470223   24.812075 H          1 MOL1         0.0832
      21    O1      21.206061   17.012348   22.781677 O.3        1 MOL1        -0.5509
      22    H14     20.878689   16.446767   23.511831 H          1 MOL1         0.3779
@<TRIPOS>BOND
    1     1     2    1
    2     1     3    1
    3     1     4    1
    4     4     5    1
    5     4     6    1
    6     4     7    1
    7     7     8    1
    8     7     9    1
    9     7    10    1
   10    10    11    1
   11    10    12    1
   12    10    13    1
   13    13    14    1
   14    13    15    1
   15    15    16    1
   16    15    17    1
   17     1    18    1
   18    15    18    1
   19    18    19    1
   20    18    20    1
   21    13    21    1
   22    21    22    1
@<TRIPOS>SUBSTRUCTURE
       1 MOL1            1 RESIDUE      1      MOL     
@<SCITEGIC>MOL_PROPERTY
VConf Rank
SciTegic.value.IntegerValue
513

@<SCITEGIC>MOL_PROPERTY
Conf_Id
SciTegic.value.IntegerValue
141

@<SCITEGIC>MOL_PROPERTY
Delta U+W
SciTegic.value.DoubleValue
0.000

@<SCITEGIC>MOL_PROPERTY
U+W
SciTegic.value.DoubleValue
6.423

@<SCITEGIC>MOL_PROPERTY
Grad RMS
SciTegic.value.DoubleValue
0.000000

@<SCITEGIC>MOL_PROPERTY
U
SciTegic.value.DoubleValue
8.781

@<SCITEGIC>MOL_PROPERTY
W
SciTegic.value.DoubleValue
-2.358

@<SCITEGIC>MOL_PROPERTY
W(PB)
SciTegic.value.DoubleValue
-4.373

@<SCITEGIC>MOL_PROPERTY
W(SA)
SciTegic.value.DoubleValue
2.015

@<SCITEGIC>MOL_PROPERTY
Valence
SciTegic.value.DoubleValue
13.328

@<SCITEGIC>MOL_PROPERTY
Coulomb
SciTegic.value.DoubleValue
-8.387

@<SCITEGIC>MOL_PROPERTY
VdW
SciTegic.value.DoubleValue
3.840

@<SCITEGIC>MOL_PROPERTY
VdW6
SciTegic.value.DoubleValue
-9.744

@<SCITEGIC>MOL_PROPERTY
VdW12
SciTegic.value.DoubleValue
13.584

@<SCITEGIC>MOL_PROPERTY
Bond
SciTegic.value.DoubleValue
0.436

@<SCITEGIC>MOL_PROPERTY
Angle
SciTegic.value.DoubleValue
3.478

@<SCITEGIC>MOL_PROPERTY
Pdih
SciTegic.value.DoubleValue
9.415

@<SCITEGIC>MOL_PROPERTY
Idih
SciTegic.value.DoubleValue
0.000

@<SCITEGIC>MOL_PROPERTY
Tether
SciTegic.value.DoubleValue
0.000

@<TRIPOS>MOLECULE
guest-5_confgen4.mol2 : confsearch ligand conformer 514
          22          22           1
SMALL
USER_CHARGES
 
@<TRIPOS>ATOM
       1    C1      19.284042   18.197280   23.414126 C.3        1 MOL1        -0.1685
       2    H1      18.939027   18.837321   24.237485 H          1 MOL1         0.0832
       3    H2      18.903222   17.190169   23.632319 H          1 MOL1         0.0832
       4    C2      20.829548   18.118663   23.384356 C.3        1 MOL1        -0.1685
       5    H3      21.168666   17.561614   24.268409 H          1 MOL1         0.0832
       6    H4      21.147271   17.523990   22.517007 H          1 MOL1         0.0832
       7    C3      21.558798   19.481795   23.364441 C.3        1 MOL1        -0.1685
       8    H5      22.637175   19.291941   23.275638 H          1 MOL1         0.0832
       9    H6      21.421616   19.983154   24.332315 H          1 MOL1         0.0832
      10    C4      21.129548   20.436612   22.223719 C.3        1 MOL1        -0.1761
      11    H7      21.865013   21.250528   22.177712 H          1 MOL1         0.0832
      12    H8      21.177529   19.926370   21.252973 H          1 MOL1         0.0832
      13    C5      19.725467   21.041291   22.448549 C.3        1 MOL1         0.1218
      14    H9      19.573165   21.164861   23.530389 H          1 MOL1         0.0789
      15    C6      18.562810   20.189985   21.889260 C.3        1 MOL1        -0.1761
      16    H10     17.639060   20.531999   22.373575 H          1 MOL1         0.0832
      17    H11     18.438155   20.403439   20.819209 H          1 MOL1         0.0832
      18    C7      18.678658   18.655331   22.066631 C.3        1 MOL1        -0.1685
      19    H12     17.673376   18.224779   21.962432 H          1 MOL1         0.0832
      20    H13     19.266272   18.233244   21.240034 H          1 MOL1         0.0832
      21    O1      19.672756   22.320588   21.829002 O.3        1 MOL1        -0.5509
      22    H14     20.367882   22.867557   22.251191 H          1 MOL1         0.3779
@<TRIPOS>BOND
    1     1     2    1
    2     1     3    1
    3     1     4    1
    4     4     5    1
    5     4     6    1
    6     4     7    1
    7     7     8    1
    8     7     9    1
    9     7    10    1
   10    10    11    1
   11    10    12    1
   12    10    13    1
   13    13    14    1
   14    13    15    1
   15    15    16    1
   16    15    17    1
   17     1    18    1
   18    15    18    1
   19    18    19    1
   20    18    20    1
   21    13    21    1
   22    21    22    1
@<TRIPOS>SUBSTRUCTURE
       1 MOL1            1 RESIDUE      1      MOL     
@<SCITEGIC>MOL_PROPERTY
VConf Rank
SciTegic.value.IntegerValue
514

@<SCITEGIC>MOL_PROPERTY
Conf_Id
SciTegic.value.IntegerValue
144

@<SCITEGIC>MOL_PROPERTY
Delta U+W
SciTegic.value.DoubleValue
-3.291

@<SCITEGIC>MOL_PROPERTY
U+W
SciTegic.value.DoubleValue
3.132

@<SCITEGIC>MOL_PROPERTY
Grad RMS
SciTegic.value.DoubleValue
0.000000

@<SCITEGIC>MOL_PROPERTY
U
SciTegic.value.DoubleValue
5.411

@<SCITEGIC>MOL_PROPERTY
W
SciTegic.value.DoubleValue
-2.279

@<SCITEGIC>MOL_PROPERTY
W(PB)
SciTegic.value.DoubleValue
-4.300

@<SCITEGIC>MOL_PROPERTY
W(SA)
SciTegic.value.DoubleValue
2.021

@<SCITEGIC>MOL_PROPERTY
Valence
SciTegic.value.DoubleValue
11.909

@<SCITEGIC>MOL_PROPERTY
Coulomb
SciTegic.value.DoubleValue
-8.733

@<SCITEGIC>MOL_PROPERTY
VdW
SciTegic.value.DoubleValue
2.236

@<SCITEGIC>MOL_PROPERTY
VdW6
SciTegic.value.DoubleValue
-8.936

@<SCITEGIC>MOL_PROPERTY
VdW12
SciTegic.value.DoubleValue
11.172

@<SCITEGIC>MOL_PROPERTY
Bond
SciTegic.value.DoubleValue
0.223

@<SCITEGIC>MOL_PROPERTY
Angle
SciTegic.value.DoubleValue
2.457

@<SCITEGIC>MOL_PROPERTY
Pdih
SciTegic.value.DoubleValue
9.228

@<SCITEGIC>MOL_PROPERTY
Idih
SciTegic.value.DoubleValue
0.000

@<SCITEGIC>MOL_PROPERTY
Tether
SciTegic.value.DoubleValue
0.000

@<TRIPOS>MOLECULE
guest-5_confgen4.mol2 : confsearch ligand conformer 515
          22          22           1
SMALL
USER_CHARGES
 
@<TRIPOS>ATOM
       1    C1      18.285508   19.824876   23.091990 C.3        1 MOL1        -0.1685
       2    H1      17.319818   19.853828   23.614957 H          1 MOL1         0.0832
       3    H2      18.131387   20.350692   22.139915 H          1 MOL1         0.0832
       4    C2      18.653899   18.342460   22.849489 C.3        1 MOL1        -0.1685
       5    H3      19.113764   17.926953   23.756490 H          1 MOL1         0.0832
       6    H4      17.730306   17.766733   22.699454 H          1 MOL1         0.0832
       7    C3      19.577988   18.086054   21.634483 C.3        1 MOL1        -0.1685
       8    H5      18.965470   18.036070   20.723857 H          1 MOL1         0.0832
       9    H6      20.024523   17.088747   21.748517 H          1 MOL1         0.0832
      10    C4      20.706837   19.119914   21.400018 C.3        1 MOL1        -0.1761
      11    H7      21.457603   18.655043   20.746784 H          1 MOL1         0.0832
      12    H8      20.305072   19.970055   20.833680 H          1 MOL1         0.0832
      13    C5      21.391507   19.639362   22.684149 C.3        1 MOL1         0.1218
      14    H9      21.431266   18.834334   23.431690 H          1 MOL1         0.0789
      15    C6      20.671592   20.868683   23.283708 C.3        1 MOL1        -0.1761
      16    H10     21.332917   21.336421   24.025328 H          1 MOL1         0.0832
      17    H11     20.515824   21.620647   22.499251 H          1 MOL1         0.0832
      18    C7      19.319511   20.566822   23.972527 C.3        1 MOL1        -0.1685
      19    H12     19.499145   19.989114   24.889538 H          1 MOL1         0.0832
      20    H13     18.881193   21.519357   24.300159 H          1 MOL1         0.0832
      21    O1      22.718961   20.027876   22.356833 O.3        1 MOL1        -0.5509
      22    H14     22.641982   20.741587   21.690612 H          1 MOL1         0.3779
@<TRIPOS>BOND
    1     1     2    1
    2     1     3    1
    3     1     4    1
    4     4     5    1
    5     4     6    1
    6     4     7    1
    7     7     8    1
    8     7     9    1
    9     7    10    1
   10    10    11    1
   11    10    12    1
   12    10    13    1
   13    13    14    1
   14    13    15    1
   15    15    16    1
   16    15    17    1
   17     1    18    1
   18    15    18    1
   19    18    19    1
   20    18    20    1
   21    13    21    1
   22    21    22    1
@<TRIPOS>SUBSTRUCTURE
       1 MOL1            1 RESIDUE      1      MOL     
@<SCITEGIC>MOL_PROPERTY
VConf Rank
SciTegic.value.IntegerValue
515

@<SCITEGIC>MOL_PROPERTY
Conf_Id
SciTegic.value.IntegerValue
76

@<SCITEGIC>MOL_PROPERTY
Delta U+W
SciTegic.value.DoubleValue
-3.175

@<SCITEGIC>MOL_PROPERTY
U+W
SciTegic.value.DoubleValue
3.248

@<SCITEGIC>MOL_PROPERTY
Grad RMS
SciTegic.value.DoubleValue
0.000000

@<SCITEGIC>MOL_PROPERTY
U
SciTegic.value.DoubleValue
5.336

@<SCITEGIC>MOL_PROPERTY
W
SciTegic.value.DoubleValue
-2.088

@<SCITEGIC>MOL_PROPERTY
W(PB)
SciTegic.value.DoubleValue
-4.098

@<SCITEGIC>MOL_PROPERTY
W(SA)
SciTegic.value.DoubleValue
2.010

@<SCITEGIC>MOL_PROPERTY
Valence
SciTegic.value.DoubleValue
12.390

@<SCITEGIC>MOL_PROPERTY
Coulomb
SciTegic.value.DoubleValue
-9.270

@<SCITEGIC>MOL_PROPERTY
VdW
SciTegic.value.DoubleValue
2.216

@<SCITEGIC>MOL_PROPERTY
VdW6
SciTegic.value.DoubleValue
-8.967

@<SCITEGIC>MOL_PROPERTY
VdW12
SciTegic.value.DoubleValue
11.183

@<SCITEGIC>MOL_PROPERTY
Bond
SciTegic.value.DoubleValue
0.218

@<SCITEGIC>MOL_PROPERTY
Angle
SciTegic.value.DoubleValue
2.426

@<SCITEGIC>MOL_PROPERTY
Pdih
SciTegic.value.DoubleValue
9.745

@<SCITEGIC>MOL_PROPERTY
Idih
SciTegic.value.DoubleValue
0.000

@<SCITEGIC>MOL_PROPERTY
Tether
SciTegic.value.DoubleValue
0.000

@<TRIPOS>MOLECULE
guest-5_confgen4.mol2 : confsearch ligand conformer 516
          22          22           1
SMALL
USER_CHARGES
 
@<TRIPOS>ATOM
       1    C1      20.159264   18.460613   24.206163 C.3        1 MOL1        -0.1685
       2    H1      20.847981   18.558497   25.056380 H          1 MOL1         0.0832
       3    H2      19.479622   17.637673   24.466300 H          1 MOL1         0.0832
       4    C2      20.982953   18.055873   22.960210 C.3        1 MOL1        -0.1685
       5    H3      21.958533   18.559910   22.986106 H          1 MOL1         0.0832
       6    H4      21.205015   16.982559   23.034164 H          1 MOL1         0.0832
       7    C3      20.295960   18.334221   21.602969 C.3        1 MOL1        -0.1685
       8    H5      19.215430   18.145199   21.662639 H          1 MOL1         0.0832
       9    H6      20.690176   17.619336   20.868241 H          1 MOL1         0.0832
      10    C4      20.577061   19.762097   21.069835 C.3        1 MOL1        -0.1761
      11    H7      21.658526   19.948026   21.089243 H          1 MOL1         0.0832
      12    H8      20.289880   19.803426   20.010952 H          1 MOL1         0.0832
      13    C5      19.860077   20.918466   21.803211 C.3        1 MOL1         0.1218
      14    H9      20.301676   21.853360   21.428963 H          1 MOL1         0.0789
      15    C6      20.022038   20.922734   23.344068 C.3        1 MOL1        -0.1761
      16    H10     21.087724   20.946101   23.606073 H          1 MOL1         0.0832
      17    H11     19.604670   21.866465   23.718184 H          1 MOL1         0.0832
      18    C7      19.319638   19.754552   24.083798 C.3        1 MOL1        -0.1685
      19    H12     19.059065   20.084442   25.098538 H          1 MOL1         0.0832
      20    H13     18.362282   19.522875   23.598787 H          1 MOL1         0.0832
      21    O1      18.478969   20.910257   21.456084 O.3        1 MOL1        -0.5509
      22    H14     18.055680   21.621127   21.979318 H          1 MOL1         0.3779
@<TRIPOS>BOND
    1     1     2    1
    2     1     3    1
    3     1     4    1
    4     4     5    1
    5     4     6    1
    6     4     7    1
    7     7     8    1
    8     7     9    1
    9     7    10    1
   10    10    11    1
   11    10    12    1
   12    10    13    1
   13    13    14    1
   14    13    15    1
   15    15    16    1
   16    15    17    1
   17     1    18    1
   18    15    18    1
   19    18    19    1
   20    18    20    1
   21    13    21    1
   22    21    22    1
@<TRIPOS>SUBSTRUCTURE
       1 MOL1            1 RESIDUE      1      MOL     
@<SCITEGIC>MOL_PROPERTY
VConf Rank
SciTegic.value.IntegerValue
516

@<SCITEGIC>MOL_PROPERTY
Conf_Id
SciTegic.value.IntegerValue
95

@<SCITEGIC>MOL_PROPERTY
Delta U+W
SciTegic.value.DoubleValue
-2.289

@<SCITEGIC>MOL_PROPERTY
U+W
SciTegic.value.DoubleValue
4.134

@<SCITEGIC>MOL_PROPERTY
Grad RMS
SciTegic.value.DoubleValue
0.000000

@<SCITEGIC>MOL_PROPERTY
U
SciTegic.value.DoubleValue
6.373

@<SCITEGIC>MOL_PROPERTY
W
SciTegic.value.DoubleValue
-2.240

@<SCITEGIC>MOL_PROPERTY
W(PB)
SciTegic.value.DoubleValue
-4.254

@<SCITEGIC>MOL_PROPERTY
W(SA)
SciTegic.value.DoubleValue
2.015

@<SCITEGIC>MOL_PROPERTY
Valence
SciTegic.value.DoubleValue
12.093

@<SCITEGIC>MOL_PROPERTY
Coulomb
SciTegic.value.DoubleValue
-8.058

@<SCITEGIC>MOL_PROPERTY
VdW
SciTegic.value.DoubleValue
2.339

@<SCITEGIC>MOL_PROPERTY
VdW6
SciTegic.value.DoubleValue
-9.683

@<SCITEGIC>MOL_PROPERTY
VdW12
SciTegic.value.DoubleValue
12.022

@<SCITEGIC>MOL_PROPERTY
Bond
SciTegic.value.DoubleValue
0.268

@<SCITEGIC>MOL_PROPERTY
Angle
SciTegic.value.DoubleValue
3.005

@<SCITEGIC>MOL_PROPERTY
Pdih
SciTegic.value.DoubleValue
8.820

@<SCITEGIC>MOL_PROPERTY
Idih
SciTegic.value.DoubleValue
0.000

@<SCITEGIC>MOL_PROPERTY
Tether
SciTegic.value.DoubleValue
0.000

@<TRIPOS>MOLECULE
guest-5_confgen4.mol2 : confsearch ligand conformer 517
          22          22           1
SMALL
USER_CHARGES
 
@<TRIPOS>ATOM
       1    C1      19.723956   21.128252   23.847698 C.3        1 MOL1        -0.1685
       2    H1      20.431966   21.912855   24.147487 H          1 MOL1         0.0832
       3    H2      18.764890   21.400207   24.309241 H          1 MOL1         0.0832
       4    C2      20.206125   19.786125   24.448144 C.3        1 MOL1        -0.1685
       5    H3      21.303955   19.753078   24.435617 H          1 MOL1         0.0832
       6    H4      19.924301   19.768679   25.509779 H          1 MOL1         0.0832
       7    C3      19.645049   18.520584   23.758858 C.3        1 MOL1        -0.1685
       8    H5      18.599243   18.668310   23.456723 H          1 MOL1         0.0832
       9    H6      19.637346   17.706586   24.496268 H          1 MOL1         0.0832
      10    C4      20.509622   18.061421   22.557612 C.3        1 MOL1        -0.1761
      11    H7      21.560039   18.006728   22.871507 H          1 MOL1         0.0832
      12    H8      20.229934   17.032452   22.296884 H          1 MOL1         0.0832
      13    C5      20.419438   18.928935   21.281280 C.3        1 MOL1         0.1218
      14    H9      21.209587   18.577678   20.602028 H          1 MOL1         0.0789
      15    C6      20.648995   20.445560   21.499190 C.3        1 MOL1        -0.1761
      16    H10     21.629452   20.613211   21.962963 H          1 MOL1         0.0832
      17    H11     20.703251   20.911165   20.506670 H          1 MOL1         0.0832
      18    C7      19.543953   21.169890   22.311391 C.3        1 MOL1        -0.1685
      19    H12     19.513873   22.223775   22.003759 H          1 MOL1         0.0832
      20    H13     18.559049   20.762776   22.047111 H          1 MOL1         0.0832
      21    O1      19.161731   18.710135   20.649463 O.3        1 MOL1        -0.5509
      22    H14     19.060582   17.741414   20.551819 H          1 MOL1         0.3779
@<TRIPOS>BOND
    1     1     2    1
    2     1     3    1
    3     1     4    1
    4     4     5    1
    5     4     6    1
    6     4     7    1
    7     7     8    1
    8     7     9    1
    9     7    10    1
   10    10    11    1
   11    10    12    1
   12    10    13    1
   13    13    14    1
   14    13    15    1
   15    15    16    1
   16    15    17    1
   17     1    18    1
   18    15    18    1
   19    18    19    1
   20    18    20    1
   21    13    21    1
   22    21    22    1
@<TRIPOS>SUBSTRUCTURE
       1 MOL1            1 RESIDUE      1      MOL     
@<SCITEGIC>MOL_PROPERTY
VConf Rank
SciTegic.value.IntegerValue
517

@<SCITEGIC>MOL_PROPERTY
Conf_Id
SciTegic.value.IntegerValue
41

@<SCITEGIC>MOL_PROPERTY
Delta U+W
SciTegic.value.DoubleValue
-2.114

@<SCITEGIC>MOL_PROPERTY
U+W
SciTegic.value.DoubleValue
4.310

@<SCITEGIC>MOL_PROPERTY
Grad RMS
SciTegic.value.DoubleValue
0.000000

@<SCITEGIC>MOL_PROPERTY
U
SciTegic.value.DoubleValue
6.598

@<SCITEGIC>MOL_PROPERTY
W
SciTegic.value.DoubleValue
-2.289

@<SCITEGIC>MOL_PROPERTY
W(PB)
SciTegic.value.DoubleValue
-4.294

@<SCITEGIC>MOL_PROPERTY
W(SA)
SciTegic.value.DoubleValue
2.005

@<SCITEGIC>MOL_PROPERTY
Valence
SciTegic.value.DoubleValue
12.082

@<SCITEGIC>MOL_PROPERTY
Coulomb
SciTegic.value.DoubleValue
-7.801

@<SCITEGIC>MOL_PROPERTY
VdW
SciTegic.value.DoubleValue
2.317

@<SCITEGIC>MOL_PROPERTY
VdW6
SciTegic.value.DoubleValue
-9.658

@<SCITEGIC>MOL_PROPERTY
VdW12
SciTegic.value.DoubleValue
11.975

@<SCITEGIC>MOL_PROPERTY
Bond
SciTegic.value.DoubleValue
0.267

@<SCITEGIC>MOL_PROPERTY
Angle
SciTegic.value.DoubleValue
3.051

@<SCITEGIC>MOL_PROPERTY
Pdih
SciTegic.value.DoubleValue
8.764

@<SCITEGIC>MOL_PROPERTY
Idih
SciTegic.value.DoubleValue
0.000

@<SCITEGIC>MOL_PROPERTY
Tether
SciTegic.value.DoubleValue
0.000

@<TRIPOS>MOLECULE
guest-5_confgen4.mol2 : confsearch ligand conformer 518
          22          22           1
SMALL
USER_CHARGES
 
@<TRIPOS>ATOM
       1    C1      20.105160   18.853285   21.196146 C.3        1 MOL1        -0.1685
       2    H1      19.876041   18.326760   20.259757 H          1 MOL1         0.0832
       3    H2      20.944779   19.526127   20.973657 H          1 MOL1         0.0832
       4    C2      20.515242   17.796358   22.245967 C.3        1 MOL1        -0.1685
       5    H3      19.646292   17.174308   22.500053 H          1 MOL1         0.0832
       6    H4      21.249273   17.117116   21.791666 H          1 MOL1         0.0832
       7    C3      21.129062   18.376876   23.538811 C.3        1 MOL1        -0.1685
       8    H5      22.108953   18.817699   23.312148 H          1 MOL1         0.0832
       9    H6      21.333541   17.541008   24.221189 H          1 MOL1         0.0832
      10    C4      20.241589   19.410104   24.284477 C.3        1 MOL1        -0.1761
      11    H7      19.236668   18.998681   24.442978 H          1 MOL1         0.0832
      12    H8      20.665907   19.550104   25.286943 H          1 MOL1         0.0832
      13    C5      20.138942   20.812966   23.632195 C.3        1 MOL1         0.1218
      14    H9      19.765600   21.495498   24.409397 H          1 MOL1         0.0789
      15    C6      19.152933   20.935153   22.441398 C.3        1 MOL1        -0.1761
      16    H10     18.196204   21.306909   22.830663 H          1 MOL1         0.0832
      17    H11     19.510373   21.718243   21.759872 H          1 MOL1         0.0832
      18    C7      18.855719   19.658442   21.616429 C.3        1 MOL1        -0.1685
      19    H12     18.163966   19.009247   22.169998 H          1 MOL1         0.0832
      20    H13     18.313020   19.962586   20.711083 H          1 MOL1         0.0832
      21    O1      21.428049   21.274201   23.236740 O.3        1 MOL1        -0.5509
      22    H14     21.306571   22.173958   22.871240 H          1 MOL1         0.3779
@<TRIPOS>BOND
    1     1     2    1
    2     1     3    1
    3     1     4    1
    4     4     5    1
    5     4     6    1
    6     4     7    1
    7     7     8    1
    8     7     9    1
    9     7    10    1
   10    10    11    1
   11    10    12    1
   12    10    13    1
   13    13    14    1
   14    13    15    1
   15    15    16    1
   16    15    17    1
   17     1    18    1
   18    15    18    1
   19    18    19    1
   20    18    20    1
   21    13    21    1
   22    21    22    1
@<TRIPOS>SUBSTRUCTURE
       1 MOL1            1 RESIDUE      1      MOL     
@<SCITEGIC>MOL_PROPERTY
VConf Rank
SciTegic.value.IntegerValue
518

@<SCITEGIC>MOL_PROPERTY
Conf_Id
SciTegic.value.IntegerValue
104

@<SCITEGIC>MOL_PROPERTY
Delta U+W
SciTegic.value.DoubleValue
-1.172

@<SCITEGIC>MOL_PROPERTY
U+W
SciTegic.value.DoubleValue
5.252

@<SCITEGIC>MOL_PROPERTY
Grad RMS
SciTegic.value.DoubleValue
0.000000

@<SCITEGIC>MOL_PROPERTY
U
SciTegic.value.DoubleValue
7.482

@<SCITEGIC>MOL_PROPERTY
W
SciTegic.value.DoubleValue
-2.230

@<SCITEGIC>MOL_PROPERTY
W(PB)
SciTegic.value.DoubleValue
-4.220

@<SCITEGIC>MOL_PROPERTY
W(SA)
SciTegic.value.DoubleValue
1.990

@<SCITEGIC>MOL_PROPERTY
Valence
SciTegic.value.DoubleValue
12.309

@<SCITEGIC>MOL_PROPERTY
Coulomb
SciTegic.value.DoubleValue
-7.084

@<SCITEGIC>MOL_PROPERTY
VdW
SciTegic.value.DoubleValue
2.258

@<SCITEGIC>MOL_PROPERTY
VdW6
SciTegic.value.DoubleValue
-9.770

@<SCITEGIC>MOL_PROPERTY
VdW12
SciTegic.value.DoubleValue
12.028

@<SCITEGIC>MOL_PROPERTY
Bond
SciTegic.value.DoubleValue
0.284

@<SCITEGIC>MOL_PROPERTY
Angle
SciTegic.value.DoubleValue
3.491

@<SCITEGIC>MOL_PROPERTY
Pdih
SciTegic.value.DoubleValue
8.535

@<SCITEGIC>MOL_PROPERTY
Idih
SciTegic.value.DoubleValue
0.000

@<SCITEGIC>MOL_PROPERTY
Tether
SciTegic.value.DoubleValue
0.000

@<TRIPOS>MOLECULE
guest-5_confgen4.mol2 : confsearch ligand conformer 519
          22          22           1
SMALL
USER_CHARGES
 
@<TRIPOS>ATOM
       1    C1      19.099197   20.057976   23.915622 C.3        1 MOL1        -0.1685
       2    H1      18.957432   21.068207   23.508411 H          1 MOL1         0.0832
       3    H2      18.546731   20.034590   24.864924 H          1 MOL1         0.0832
       4    C2      20.589489   19.793188   24.229313 C.3        1 MOL1        -0.1685
       5    H3      20.836580   20.272725   25.186516 H          1 MOL1         0.0832
       6    H4      20.739411   18.719501   24.402680 H          1 MOL1         0.0832
       7    C3      21.599586   20.304273   23.170932 C.3        1 MOL1        -0.1685
       8    H5      22.515410   19.701668   23.244744 H          1 MOL1         0.0832
       9    H6      21.900416   21.325397   23.442475 H          1 MOL1         0.0832
      10    C4      21.126909   20.333671   21.692110 C.3        1 MOL1        -0.1761
      11    H7      20.495614   21.217774   21.534686 H          1 MOL1         0.0832
      12    H8      22.008483   20.493101   21.057751 H          1 MOL1         0.0832
      13    C5      20.376460   19.088036   21.167513 C.3        1 MOL1         0.1218
      14    H9      20.467452   19.088868   20.071793 H          1 MOL1         0.0789
      15    C6      18.865433   19.117511   21.490309 C.3        1 MOL1        -0.1761
      16    H10     18.437904   20.044880   21.087484 H          1 MOL1         0.0832
      17    H11     18.381093   18.303457   20.935355 H          1 MOL1         0.0832
      18    C7      18.474860   18.992170   22.983806 C.3        1 MOL1        -0.1685
      19    H12     17.381419   19.071426   23.053211 H          1 MOL1         0.0832
      20    H13     18.721481   17.986453   23.350124 H          1 MOL1         0.0832
      21    O1      20.962849   17.900825   21.678244 O.3        1 MOL1        -0.5509
      22    H14     20.919501   18.011824   22.648855 H          1 MOL1         0.3779
@<TRIPOS>BOND
    1     1     2    1
    2     1     3    1
    3     1     4    1
    4     4     5    1
    5     4     6    1
    6     4     7    1
    7     7     8    1
    8     7     9    1
    9     7    10    1
   10    10    11    1
   11    10    12    1
   12    10    13    1
   13    13    14    1
   14    13    15    1
   15    15    16    1
   16    15    17    1
   17     1    18    1
   18    15    18    1
   19    18    19    1
   20    18    20    1
   21    13    21    1
   22    21    22    1
@<TRIPOS>SUBSTRUCTURE
       1 MOL1            1 RESIDUE      1      MOL     
@<SCITEGIC>MOL_PROPERTY
VConf Rank
SciTegic.value.IntegerValue
519

@<SCITEGIC>MOL_PROPERTY
Conf_Id
SciTegic.value.IntegerValue
99

@<SCITEGIC>MOL_PROPERTY
Delta U+W
SciTegic.value.DoubleValue
-3.852

@<SCITEGIC>MOL_PROPERTY
U+W
SciTegic.value.DoubleValue
2.572

@<SCITEGIC>MOL_PROPERTY
Grad RMS
SciTegic.value.DoubleValue
0.000000

@<SCITEGIC>MOL_PROPERTY
U
SciTegic.value.DoubleValue
3.922

@<SCITEGIC>MOL_PROPERTY
W
SciTegic.value.DoubleValue
-1.350

@<SCITEGIC>MOL_PROPERTY
W(PB)
SciTegic.value.DoubleValue
-3.345

@<SCITEGIC>MOL_PROPERTY
W(SA)
SciTegic.value.DoubleValue
1.995

@<SCITEGIC>MOL_PROPERTY
Valence
SciTegic.value.DoubleValue
12.571

@<SCITEGIC>MOL_PROPERTY
Coulomb
SciTegic.value.DoubleValue
-10.581

@<SCITEGIC>MOL_PROPERTY
VdW
SciTegic.value.DoubleValue
1.932

@<SCITEGIC>MOL_PROPERTY
VdW6
SciTegic.value.DoubleValue
-10.483

@<SCITEGIC>MOL_PROPERTY
VdW12
SciTegic.value.DoubleValue
12.415

@<SCITEGIC>MOL_PROPERTY
Bond
SciTegic.value.DoubleValue
0.268

@<SCITEGIC>MOL_PROPERTY
Angle
SciTegic.value.DoubleValue
3.728

@<SCITEGIC>MOL_PROPERTY
Pdih
SciTegic.value.DoubleValue
8.575

@<SCITEGIC>MOL_PROPERTY
Idih
SciTegic.value.DoubleValue
0.000

@<SCITEGIC>MOL_PROPERTY
Tether
SciTegic.value.DoubleValue
0.000

@<TRIPOS>MOLECULE
guest-5_confgen4.mol2 : confsearch ligand conformer 520
          22          22           1
SMALL
USER_CHARGES
 
@<TRIPOS>ATOM
       1    C1      19.593202   21.172378   22.904701 C.3        1 MOL1        -0.1685
       2    H1      19.766803   22.195362   23.266167 H          1 MOL1         0.0832
       3    H2      18.597376   21.200639   22.442547 H          1 MOL1         0.0832
       4    C2      19.584682   20.224627   24.139831 C.3        1 MOL1        -0.1685
       5    H3      19.754432   20.837417   25.035913 H          1 MOL1         0.0832
       6    H4      18.584757   19.792061   24.277997 H          1 MOL1         0.0832
       7    C3      20.643592   19.092624   24.134380 C.3        1 MOL1        -0.1685
       8    H5      20.659843   18.628674   25.129977 H          1 MOL1         0.0832
       9    H6      21.645463   19.523303   24.014638 H          1 MOL1         0.0832
      10    C4      20.429172   17.964221   23.087689 C.3        1 MOL1        -0.1761
      11    H7      21.394118   17.471501   22.912054 H          1 MOL1         0.0832
      12    H8      19.787232   17.193665   23.535072 H          1 MOL1         0.0832
      13    C5      19.816167   18.343881   21.717200 C.3        1 MOL1         0.1218
      14    H9      19.956016   17.478241   21.053964 H          1 MOL1         0.0789
      15    C6      20.443175   19.565330   21.000911 C.3        1 MOL1        -0.1761
      16    H10     21.409671   19.261797   20.578425 H          1 MOL1         0.0832
      17    H11     19.809922   19.802268   20.135551 H          1 MOL1         0.0832
      18    C7      20.659402   20.866942   21.821796 C.3        1 MOL1        -0.1685
      19    H12     21.657356   20.855965   22.277357 H          1 MOL1         0.0832
      20    H13     20.687401   21.708383   21.116164 H          1 MOL1         0.0832
      21    O1      18.418244   18.541128   21.859140 O.3        1 MOL1        -0.5509
      22    H14     18.347843   19.315497   22.452714 H          1 MOL1         0.3779
@<TRIPOS>BOND
    1     1     2    1
    2     1     3    1
    3     1     4    1
    4     4     5    1
    5     4     6    1
    6     4     7    1
    7     7     8    1
    8     7     9    1
    9     7    10    1
   10    10    11    1
   11    10    12    1
   12    10    13    1
   13    13    14    1
   14    13    15    1
   15    15    16    1
   16    15    17    1
   17     1    18    1
   18    15    18    1
   19    18    19    1
   20    18    20    1
   21    13    21    1
   22    21    22    1
@<TRIPOS>SUBSTRUCTURE
       1 MOL1            1 RESIDUE      1      MOL     
@<SCITEGIC>MOL_PROPERTY
VConf Rank
SciTegic.value.IntegerValue
520

@<SCITEGIC>MOL_PROPERTY
Conf_Id
SciTegic.value.IntegerValue
98

@<SCITEGIC>MOL_PROPERTY
Delta U+W
SciTegic.value.DoubleValue
0.930

@<SCITEGIC>MOL_PROPERTY
U+W
SciTegic.value.DoubleValue
7.353

@<SCITEGIC>MOL_PROPERTY
Grad RMS
SciTegic.value.DoubleValue
0.000000

@<SCITEGIC>MOL_PROPERTY
U
SciTegic.value.DoubleValue
8.455

@<SCITEGIC>MOL_PROPERTY
W
SciTegic.value.DoubleValue
-1.102

@<SCITEGIC>MOL_PROPERTY
W(PB)
SciTegic.value.DoubleValue
-3.101

@<SCITEGIC>MOL_PROPERTY
W(SA)
SciTegic.value.DoubleValue
2.000

@<SCITEGIC>MOL_PROPERTY
Valence
SciTegic.value.DoubleValue
15.601

@<SCITEGIC>MOL_PROPERTY
Coulomb
SciTegic.value.DoubleValue
-10.573

@<SCITEGIC>MOL_PROPERTY
VdW
SciTegic.value.DoubleValue
3.427

@<SCITEGIC>MOL_PROPERTY
VdW6
SciTegic.value.DoubleValue
-11.360

@<SCITEGIC>MOL_PROPERTY
VdW12
SciTegic.value.DoubleValue
14.787

@<SCITEGIC>MOL_PROPERTY
Bond
SciTegic.value.DoubleValue
0.471

@<SCITEGIC>MOL_PROPERTY
Angle
SciTegic.value.DoubleValue
5.445

@<SCITEGIC>MOL_PROPERTY
Pdih
SciTegic.value.DoubleValue
9.685

@<SCITEGIC>MOL_PROPERTY
Idih
SciTegic.value.DoubleValue
0.000

@<SCITEGIC>MOL_PROPERTY
Tether
SciTegic.value.DoubleValue
0.000

@<TRIPOS>MOLECULE
guest-5_confgen4.mol2 : confsearch ligand conformer 521
          22          22           1
SMALL
USER_CHARGES
 
@<TRIPOS>ATOM
       1    C1      21.441499   19.819570   21.738695 C.3        1 MOL1        -0.1685
       2    H1      20.961168   20.736839   21.374441 H          1 MOL1         0.0832
       3    H2      22.445706   19.827447   21.293477 H          1 MOL1         0.0832
       4    C2      20.676124   18.580927   21.207540 C.3        1 MOL1        -0.1685
       5    H3      20.693132   18.627332   20.110074 H          1 MOL1         0.0832
       6    H4      21.224267   17.667383   21.475122 H          1 MOL1         0.0832
       7    C3      19.196976   18.440637   21.662606 C.3        1 MOL1        -0.1685
       8    H5      19.115624   17.678391   22.448339 H          1 MOL1         0.0832
       9    H6      18.615901   18.041387   20.820236 H          1 MOL1         0.0832
      10    C4      18.530928   19.755766   22.146884 C.3        1 MOL1        -0.1761
      11    H7      18.671025   20.532103   21.384454 H          1 MOL1         0.0832
      12    H8      17.445035   19.596662   22.190567 H          1 MOL1         0.0832
      13    C5      19.016706   20.297370   23.523313 C.3        1 MOL1         0.1218
      14    H9      19.200405   21.376284   23.417163 H          1 MOL1         0.0789
      15    C6      20.299727   19.642714   24.093874 C.3        1 MOL1        -0.1761
      16    H10     20.468066   20.018327   25.111535 H          1 MOL1         0.0832
      17    H11     20.142942   18.563643   24.210541 H          1 MOL1         0.0832
      18    C7      21.591994   19.891231   23.276503 C.3        1 MOL1        -0.1685
      19    H12     21.991045   20.881589   23.534889 H          1 MOL1         0.0832
      20    H13     22.352339   19.166683   23.598339 H          1 MOL1         0.0832
      21    O1      17.978245   20.101778   24.476476 O.3        1 MOL1        -0.5509
      22    H14     18.286397   20.501740   25.316269 H          1 MOL1         0.3779
@<TRIPOS>BOND
    1     1     2    1
    2     1     3    1
    3     1     4    1
    4     4     5    1
    5     4     6    1
    6     4     7    1
    7     7     8    1
    8     7     9    1
    9     7    10    1
   10    10    11    1
   11    10    12    1
   12    10    13    1
   13    13    14    1
   14    13    15    1
   15    15    16    1
   16    15    17    1
   17     1    18    1
   18    15    18    1
   19    18    19    1
   20    18    20    1
   21    13    21    1
   22    21    22    1
@<TRIPOS>SUBSTRUCTURE
       1 MOL1            1 RESIDUE      1      MOL     
@<SCITEGIC>MOL_PROPERTY
VConf Rank
SciTegic.value.IntegerValue
521

@<SCITEGIC>MOL_PROPERTY
Conf_Id
SciTegic.value.IntegerValue
141

@<SCITEGIC>MOL_PROPERTY
Delta U+W
SciTegic.value.DoubleValue
0.000

@<SCITEGIC>MOL_PROPERTY
U+W
SciTegic.value.DoubleValue
6.423

@<SCITEGIC>MOL_PROPERTY
Grad RMS
SciTegic.value.DoubleValue
0.000000

@<SCITEGIC>MOL_PROPERTY
U
SciTegic.value.DoubleValue
8.781

@<SCITEGIC>MOL_PROPERTY
W
SciTegic.value.DoubleValue
-2.358

@<SCITEGIC>MOL_PROPERTY
W(PB)
SciTegic.value.DoubleValue
-4.373

@<SCITEGIC>MOL_PROPERTY
W(SA)
SciTegic.value.DoubleValue
2.015

@<SCITEGIC>MOL_PROPERTY
Valence
SciTegic.value.DoubleValue
13.328

@<SCITEGIC>MOL_PROPERTY
Coulomb
SciTegic.value.DoubleValue
-8.387

@<SCITEGIC>MOL_PROPERTY
VdW
SciTegic.value.DoubleValue
3.840

@<SCITEGIC>MOL_PROPERTY
VdW6
SciTegic.value.DoubleValue
-9.744

@<SCITEGIC>MOL_PROPERTY
VdW12
SciTegic.value.DoubleValue
13.584

@<SCITEGIC>MOL_PROPERTY
Bond
SciTegic.value.DoubleValue
0.436

@<SCITEGIC>MOL_PROPERTY
Angle
SciTegic.value.DoubleValue
3.478

@<SCITEGIC>MOL_PROPERTY
Pdih
SciTegic.value.DoubleValue
9.415

@<SCITEGIC>MOL_PROPERTY
Idih
SciTegic.value.DoubleValue
0.000

@<SCITEGIC>MOL_PROPERTY
Tether
SciTegic.value.DoubleValue
0.000

@<TRIPOS>MOLECULE
guest-5_confgen4.mol2 : confsearch ligand conformer 522
          22          22           1
SMALL
USER_CHARGES
 
@<TRIPOS>ATOM
       1    C1      18.825605   18.574804   21.856867 C.3        1 MOL1        -0.1685
       2    H1      19.410598   17.705175   22.185709 H          1 MOL1         0.0832
       3    H2      17.947551   18.170360   21.334995 H          1 MOL1         0.0832
       4    C2      19.624160   19.427150   20.841252 C.3        1 MOL1        -0.1685
       5    H3      19.730104   18.853841   19.910152 H          1 MOL1         0.0832
       6    H4      19.041103   20.320005   20.577180 H          1 MOL1         0.0832
       7    C3      21.034739   19.856726   21.306077 C.3        1 MOL1        -0.1685
       8    H5      21.466835   20.506707   20.533002 H          1 MOL1         0.0832
       9    H6      21.687383   18.974309   21.354613 H          1 MOL1         0.0832
      10    C4      21.077342   20.604730   22.661014 C.3        1 MOL1        -0.1761
      11    H7      22.075404   21.050857   22.762640 H          1 MOL1         0.0832
      12    H8      20.366976   21.441612   22.663848 H          1 MOL1         0.0832
      13    C5      20.819697   19.671991   23.865690 C.3        1 MOL1         0.1218
      14    H9      21.226588   18.679224   23.625489 H          1 MOL1         0.0789
      15    C6      19.329767   19.507154   24.242828 C.3        1 MOL1        -0.1761
      16    H10     19.243658   18.608676   24.867467 H          1 MOL1         0.0832
      17    H11     19.021089   20.346907   24.879729 H          1 MOL1         0.0832
      18    C7      18.325144   19.394951   23.068865 C.3        1 MOL1        -0.1685
      19    H12     17.403546   18.937110   23.453395 H          1 MOL1         0.0832
      20    H13     18.036416   20.400853   22.734939 H          1 MOL1         0.0832
      21    O1      21.506953   20.187155   24.999491 O.3        1 MOL1        -0.5509
      22    H14     22.458400   20.212209   24.765529 H          1 MOL1         0.3779
@<TRIPOS>BOND
    1     1     2    1
    2     1     3    1
    3     1     4    1
    4     4     5    1
    5     4     6    1
    6     4     7    1
    7     7     8    1
    8     7     9    1
    9     7    10    1
   10    10    11    1
   11    10    12    1
   12    10    13    1
   13    13    14    1
   14    13    15    1
   15    15    16    1
   16    15    17    1
   17     1    18    1
   18    15    18    1
   19    18    19    1
   20    18    20    1
   21    13    21    1
   22    21    22    1
@<TRIPOS>SUBSTRUCTURE
       1 MOL1            1 RESIDUE      1      MOL     
@<SCITEGIC>MOL_PROPERTY
VConf Rank
SciTegic.value.IntegerValue
522

@<SCITEGIC>MOL_PROPERTY
Conf_Id
SciTegic.value.IntegerValue
144

@<SCITEGIC>MOL_PROPERTY
Delta U+W
SciTegic.value.DoubleValue
-3.291

@<SCITEGIC>MOL_PROPERTY
U+W
SciTegic.value.DoubleValue
3.132

@<SCITEGIC>MOL_PROPERTY
Grad RMS
SciTegic.value.DoubleValue
0.000000

@<SCITEGIC>MOL_PROPERTY
U
SciTegic.value.DoubleValue
5.411

@<SCITEGIC>MOL_PROPERTY
W
SciTegic.value.DoubleValue
-2.279

@<SCITEGIC>MOL_PROPERTY
W(PB)
SciTegic.value.DoubleValue
-4.300

@<SCITEGIC>MOL_PROPERTY
W(SA)
SciTegic.value.DoubleValue
2.021

@<SCITEGIC>MOL_PROPERTY
Valence
SciTegic.value.DoubleValue
11.909

@<SCITEGIC>MOL_PROPERTY
Coulomb
SciTegic.value.DoubleValue
-8.733

@<SCITEGIC>MOL_PROPERTY
VdW
SciTegic.value.DoubleValue
2.236

@<SCITEGIC>MOL_PROPERTY
VdW6
SciTegic.value.DoubleValue
-8.936

@<SCITEGIC>MOL_PROPERTY
VdW12
SciTegic.value.DoubleValue
11.172

@<SCITEGIC>MOL_PROPERTY
Bond
SciTegic.value.DoubleValue
0.223

@<SCITEGIC>MOL_PROPERTY
Angle
SciTegic.value.DoubleValue
2.457

@<SCITEGIC>MOL_PROPERTY
Pdih
SciTegic.value.DoubleValue
9.228

@<SCITEGIC>MOL_PROPERTY
Idih
SciTegic.value.DoubleValue
0.000

@<SCITEGIC>MOL_PROPERTY
Tether
SciTegic.value.DoubleValue
0.000

@<TRIPOS>MOLECULE
guest-5_confgen4.mol2 : confsearch ligand conformer 523
          22          22           1
SMALL
USER_CHARGES
 
@<TRIPOS>ATOM
       1    C1      18.807910   18.912002   23.798333 C.3        1 MOL1        -0.1685
       2    H1      18.186890   18.248253   24.415311 H          1 MOL1         0.0832
       3    H2      18.561941   19.935880   24.111149 H          1 MOL1         0.0832
       4    C2      18.427951   18.682095   22.316831 C.3        1 MOL1        -0.1685
       5    H3      18.961314   17.800837   21.935147 H          1 MOL1         0.0832
       6    H4      17.361070   18.426284   22.259171 H          1 MOL1         0.0832
       7    C3      18.680195   19.888003   21.379771 C.3        1 MOL1        -0.1685
       8    H5      17.826361   20.576191   21.445194 H          1 MOL1         0.0832
       9    H6      18.688583   19.520957   20.344288 H          1 MOL1         0.0832
      10    C4      19.973959   20.699105   21.637508 C.3        1 MOL1        -0.1761
      11    H7      20.190035   21.283131   20.732690 H          1 MOL1         0.0832
      12    H8      19.785866   21.435699   22.429307 H          1 MOL1         0.0832
      13    C5      21.210588   19.851520   22.011596 C.3        1 MOL1         0.1218
      14    H9      21.174734   18.891810   21.476674 H          1 MOL1         0.0789
      15    C6      21.314599   19.594139   23.532094 C.3        1 MOL1        -0.1761
      16    H10     22.321741   19.218402   23.757076 H          1 MOL1         0.0832
      17    H11     21.218037   20.545038   24.072051 H          1 MOL1         0.0832
      18    C7      20.289939   18.582852   24.098737 C.3        1 MOL1        -0.1685
      19    H12     20.524012   17.577743   23.722051 H          1 MOL1         0.0832
      20    H13     20.423740   18.532720   25.187944 H          1 MOL1         0.0832
      21    O1      22.375618   20.558728   21.608144 O.3        1 MOL1        -0.5509
      22    H14     22.370989   21.404237   22.102363 H          1 MOL1         0.3779
@<TRIPOS>BOND
    1     1     2    1
    2     1     3    1
    3     1     4    1
    4     4     5    1
    5     4     6    1
    6     4     7    1
    7     7     8    1
    8     7     9    1
    9     7    10    1
   10    10    11    1
   11    10    12    1
   12    10    13    1
   13    13    14    1
   14    13    15    1
   15    15    16    1
   16    15    17    1
   17     1    18    1
   18    15    18    1
   19    18    19    1
   20    18    20    1
   21    13    21    1
   22    21    22    1
@<TRIPOS>SUBSTRUCTURE
       1 MOL1            1 RESIDUE      1      MOL     
@<SCITEGIC>MOL_PROPERTY
VConf Rank
SciTegic.value.IntegerValue
523

@<SCITEGIC>MOL_PROPERTY
Conf_Id
SciTegic.value.IntegerValue
76

@<SCITEGIC>MOL_PROPERTY
Delta U+W
SciTegic.value.DoubleValue
-3.175

@<SCITEGIC>MOL_PROPERTY
U+W
SciTegic.value.DoubleValue
3.248

@<SCITEGIC>MOL_PROPERTY
Grad RMS
SciTegic.value.DoubleValue
0.000000

@<SCITEGIC>MOL_PROPERTY
U
SciTegic.value.DoubleValue
5.336

@<SCITEGIC>MOL_PROPERTY
W
SciTegic.value.DoubleValue
-2.088

@<SCITEGIC>MOL_PROPERTY
W(PB)
SciTegic.value.DoubleValue
-4.098

@<SCITEGIC>MOL_PROPERTY
W(SA)
SciTegic.value.DoubleValue
2.010

@<SCITEGIC>MOL_PROPERTY
Valence
SciTegic.value.DoubleValue
12.390

@<SCITEGIC>MOL_PROPERTY
Coulomb
SciTegic.value.DoubleValue
-9.270

@<SCITEGIC>MOL_PROPERTY
VdW
SciTegic.value.DoubleValue
2.216

@<SCITEGIC>MOL_PROPERTY
VdW6
SciTegic.value.DoubleValue
-8.967

@<SCITEGIC>MOL_PROPERTY
VdW12
SciTegic.value.DoubleValue
11.183

@<SCITEGIC>MOL_PROPERTY
Bond
SciTegic.value.DoubleValue
0.218

@<SCITEGIC>MOL_PROPERTY
Angle
SciTegic.value.DoubleValue
2.426

@<SCITEGIC>MOL_PROPERTY
Pdih
SciTegic.value.DoubleValue
9.745

@<SCITEGIC>MOL_PROPERTY
Idih
SciTegic.value.DoubleValue
0.000

@<SCITEGIC>MOL_PROPERTY
Tether
SciTegic.value.DoubleValue
0.000

@<TRIPOS>MOLECULE
guest-5_confgen4.mol2 : confsearch ligand conformer 524
          22          22           1
SMALL
USER_CHARGES
 
@<TRIPOS>ATOM
       1    C1      20.926189   20.399073   24.127876 C.3        1 MOL1        -0.1685
       2    H1      21.266748   21.442144   24.180828 H          1 MOL1         0.0832
       3    H2      21.116846   19.972415   25.122073 H          1 MOL1         0.0832
       4    C2      21.799425   19.657052   23.087906 C.3        1 MOL1        -0.1685
       5    H3      22.034804   20.334977   22.256345 H          1 MOL1         0.0832
       6    H4      22.764148   19.424338   23.559007 H          1 MOL1         0.0832
       7    C3      21.185344   18.352096   22.529752 C.3        1 MOL1        -0.1685
       8    H5      20.638323   17.808431   23.312076 H          1 MOL1         0.0832
       9    H6      22.007806   17.693638   22.219457 H          1 MOL1         0.0832
      10    C4      20.282862   18.594560   21.293298 C.3        1 MOL1        -0.1761
      11    H7      20.830590   19.200286   20.560084 H          1 MOL1         0.0832
      12    H8      20.097920   17.631121   20.800352 H          1 MOL1         0.0832
      13    C5      18.914839   19.260252   21.566179 C.3        1 MOL1         0.1218
      14    H9      18.489272   19.523167   20.586962 H          1 MOL1         0.0789
      15    C6      18.970886   20.562763   22.403325 C.3        1 MOL1        -0.1761
      16    H10     19.626513   21.293064   21.911703 H          1 MOL1         0.0832
      17    H11     17.968084   21.008826   22.389100 H          1 MOL1         0.0832
      18    C7      19.398590   20.377585   23.882512 C.3        1 MOL1        -0.1685
      19    H12     18.949409   21.179764   24.483485 H          1 MOL1         0.0832
      20    H13     18.978694   19.445189   24.282219 H          1 MOL1         0.0832
      21    O1      18.048411   18.315980   22.187206 O.3        1 MOL1        -0.5509
      22    H14     17.216519   18.791086   22.388483 H          1 MOL1         0.3779
@<TRIPOS>BOND
    1     1     2    1
    2     1     3    1
    3     1     4    1
    4     4     5    1
    5     4     6    1
    6     4     7    1
    7     7     8    1
    8     7     9    1
    9     7    10    1
   10    10    11    1
   11    10    12    1
   12    10    13    1
   13    13    14    1
   14    13    15    1
   15    15    16    1
   16    15    17    1
   17     1    18    1
   18    15    18    1
   19    18    19    1
   20    18    20    1
   21    13    21    1
   22    21    22    1
@<TRIPOS>SUBSTRUCTURE
       1 MOL1            1 RESIDUE      1      MOL     
@<SCITEGIC>MOL_PROPERTY
VConf Rank
SciTegic.value.IntegerValue
524

@<SCITEGIC>MOL_PROPERTY
Conf_Id
SciTegic.value.IntegerValue
95

@<SCITEGIC>MOL_PROPERTY
Delta U+W
SciTegic.value.DoubleValue
-2.289

@<SCITEGIC>MOL_PROPERTY
U+W
SciTegic.value.DoubleValue
4.134

@<SCITEGIC>MOL_PROPERTY
Grad RMS
SciTegic.value.DoubleValue
0.000000

@<SCITEGIC>MOL_PROPERTY
U
SciTegic.value.DoubleValue
6.373

@<SCITEGIC>MOL_PROPERTY
W
SciTegic.value.DoubleValue
-2.240

@<SCITEGIC>MOL_PROPERTY
W(PB)
SciTegic.value.DoubleValue
-4.254

@<SCITEGIC>MOL_PROPERTY
W(SA)
SciTegic.value.DoubleValue
2.015

@<SCITEGIC>MOL_PROPERTY
Valence
SciTegic.value.DoubleValue
12.093

@<SCITEGIC>MOL_PROPERTY
Coulomb
SciTegic.value.DoubleValue
-8.058

@<SCITEGIC>MOL_PROPERTY
VdW
SciTegic.value.DoubleValue
2.339

@<SCITEGIC>MOL_PROPERTY
VdW6
SciTegic.value.DoubleValue
-9.683

@<SCITEGIC>MOL_PROPERTY
VdW12
SciTegic.value.DoubleValue
12.022

@<SCITEGIC>MOL_PROPERTY
Bond
SciTegic.value.DoubleValue
0.268

@<SCITEGIC>MOL_PROPERTY
Angle
SciTegic.value.DoubleValue
3.005

@<SCITEGIC>MOL_PROPERTY
Pdih
SciTegic.value.DoubleValue
8.820

@<SCITEGIC>MOL_PROPERTY
Idih
SciTegic.value.DoubleValue
0.000

@<SCITEGIC>MOL_PROPERTY
Tether
SciTegic.value.DoubleValue
0.000

@<TRIPOS>MOLECULE
guest-5_confgen4.mol2 : confsearch ligand conformer 525
          22          22           1
SMALL
USER_CHARGES
 
@<TRIPOS>ATOM
       1    C1      20.843642   20.456220   24.233412 C.3        1 MOL1        -0.1685
       2    H1      20.359379   20.745219   25.176133 H          1 MOL1         0.0832
       3    H2      21.906628   20.704828   24.356070 H          1 MOL1         0.0832
       4    C2      20.253108   21.327339   23.099062 C.3        1 MOL1        -0.1685
       5    H3      19.185715   21.502440   23.290092 H          1 MOL1         0.0832
       6    H4      20.726438   22.317364   23.150132 H          1 MOL1         0.0832
       7    C3      20.434163   20.757214   21.672986 C.3        1 MOL1        -0.1685
       8    H5      21.411332   20.266622   21.566779 H          1 MOL1         0.0832
       9    H6      20.437469   21.599296   20.967781 H          1 MOL1         0.0832
      10    C4      19.286145   19.801150   21.261522 C.3        1 MOL1        -0.1761
      11    H7      18.323509   20.289670   21.460462 H          1 MOL1         0.0832
      12    H8      19.320846   19.658839   20.173622 H          1 MOL1         0.0832
      13    C5      19.283021   18.409642   21.934896 C.3        1 MOL1         0.1218
      14    H9      18.326781   17.933113   21.674850 H          1 MOL1         0.0789
      15    C6      19.376038   18.427002   23.481305 C.3        1 MOL1        -0.1761
      16    H10     18.549719   19.015744   23.899717 H          1 MOL1         0.0832
      17    H11     19.216069   17.397674   23.827315 H          1 MOL1         0.0832
      18    C7      20.728691   18.923449   24.055162 C.3        1 MOL1        -0.1685
      19    H12     20.887756   18.456882   25.036605 H          1 MOL1         0.0832
      20    H13     21.554725   18.565083   23.426782 H          1 MOL1         0.0832
      21    O1      20.335220   17.619049   21.390164 O.3        1 MOL1        -0.5509
      22    H14     20.239943   17.655976   20.416642 H          1 MOL1         0.3779
@<TRIPOS>BOND
    1     1     2    1
    2     1     3    1
    3     1     4    1
    4     4     5    1
    5     4     6    1
    6     4     7    1
    7     7     8    1
    8     7     9    1
    9     7    10    1
   10    10    11    1
   11    10    12    1
   12    10    13    1
   13    13    14    1
   14    13    15    1
   15    15    16    1
   16    15    17    1
   17     1    18    1
   18    15    18    1
   19    18    19    1
   20    18    20    1
   21    13    21    1
   22    21    22    1
@<TRIPOS>SUBSTRUCTURE
       1 MOL1            1 RESIDUE      1      MOL     
@<SCITEGIC>MOL_PROPERTY
VConf Rank
SciTegic.value.IntegerValue
525

@<SCITEGIC>MOL_PROPERTY
Conf_Id
SciTegic.value.IntegerValue
41

@<SCITEGIC>MOL_PROPERTY
Delta U+W
SciTegic.value.DoubleValue
-2.114

@<SCITEGIC>MOL_PROPERTY
U+W
SciTegic.value.DoubleValue
4.310

@<SCITEGIC>MOL_PROPERTY
Grad RMS
SciTegic.value.DoubleValue
0.000000

@<SCITEGIC>MOL_PROPERTY
U
SciTegic.value.DoubleValue
6.598

@<SCITEGIC>MOL_PROPERTY
W
SciTegic.value.DoubleValue
-2.289

@<SCITEGIC>MOL_PROPERTY
W(PB)
SciTegic.value.DoubleValue
-4.294

@<SCITEGIC>MOL_PROPERTY
W(SA)
SciTegic.value.DoubleValue
2.005

@<SCITEGIC>MOL_PROPERTY
Valence
SciTegic.value.DoubleValue
12.082

@<SCITEGIC>MOL_PROPERTY
Coulomb
SciTegic.value.DoubleValue
-7.801

@<SCITEGIC>MOL_PROPERTY
VdW
SciTegic.value.DoubleValue
2.317

@<SCITEGIC>MOL_PROPERTY
VdW6
SciTegic.value.DoubleValue
-9.658

@<SCITEGIC>MOL_PROPERTY
VdW12
SciTegic.value.DoubleValue
11.975

@<SCITEGIC>MOL_PROPERTY
Bond
SciTegic.value.DoubleValue
0.267

@<SCITEGIC>MOL_PROPERTY
Angle
SciTegic.value.DoubleValue
3.051

@<SCITEGIC>MOL_PROPERTY
Pdih
SciTegic.value.DoubleValue
8.764

@<SCITEGIC>MOL_PROPERTY
Idih
SciTegic.value.DoubleValue
0.000

@<SCITEGIC>MOL_PROPERTY
Tether
SciTegic.value.DoubleValue
0.000

@<TRIPOS>MOLECULE
guest-5_confgen4.mol2 : confsearch ligand conformer 526
          22          22           1
SMALL
USER_CHARGES
 
@<TRIPOS>ATOM
       1    C1      18.925959   19.795913   21.546740 C.3        1 MOL1        -0.1685
       2    H1      18.086003   20.157301   20.938117 H          1 MOL1         0.0832
       3    H2      19.572661   19.221662   20.869105 H          1 MOL1         0.0832
       4    C2      18.350945   18.885906   22.655177 C.3        1 MOL1        -0.1685
       5    H3      17.759077   19.489842   23.356272 H          1 MOL1         0.0832
       6    H4      17.646051   18.178509   22.197711 H          1 MOL1         0.0832
       7    C3      19.408513   18.076853   23.437611 C.3        1 MOL1        -0.1685
       8    H5      19.853815   17.321769   22.776215 H          1 MOL1         0.0832
       9    H6      18.888935   17.510659   24.222205 H          1 MOL1         0.0832
      10    C4      20.526000   18.923526   24.105110 C.3        1 MOL1        -0.1761
      11    H7      20.081680   19.727590   24.705375 H          1 MOL1         0.0832
      12    H8      21.051203   18.276334   24.819175 H          1 MOL1         0.0832
      13    C5      21.595841   19.510626   23.148666 C.3        1 MOL1         0.1218
      14    H9      22.456774   19.791080   23.772698 H          1 MOL1         0.0789
      15    C6      21.185161   20.793065   22.379360 C.3        1 MOL1        -0.1761
      16    H10     21.555539   21.659276   22.942885 H          1 MOL1         0.0832
      17    H11     21.720611   20.822423   21.421287 H          1 MOL1         0.0832
      18    C7      19.677021   21.022064   22.111079 C.3        1 MOL1        -0.1685
      19    H12     19.183623   21.370389   23.028489 H          1 MOL1         0.0832
      20    H13     19.585404   21.850114   21.395106 H          1 MOL1         0.0832
      21    O1      22.037538   18.518516   22.225877 O.3        1 MOL1        -0.5509
      22    H14     22.735532   18.932213   21.678548 H          1 MOL1         0.3779
@<TRIPOS>BOND
    1     1     2    1
    2     1     3    1
    3     1     4    1
    4     4     5    1
    5     4     6    1
    6     4     7    1
    7     7     8    1
    8     7     9    1
    9     7    10    1
   10    10    11    1
   11    10    12    1
   12    10    13    1
   13    13    14    1
   14    13    15    1
   15    15    16    1
   16    15    17    1
   17     1    18    1
   18    15    18    1
   19    18    19    1
   20    18    20    1
   21    13    21    1
   22    21    22    1
@<TRIPOS>SUBSTRUCTURE
       1 MOL1            1 RESIDUE      1      MOL     
@<SCITEGIC>MOL_PROPERTY
VConf Rank
SciTegic.value.IntegerValue
526

@<SCITEGIC>MOL_PROPERTY
Conf_Id
SciTegic.value.IntegerValue
104

@<SCITEGIC>MOL_PROPERTY
Delta U+W
SciTegic.value.DoubleValue
-1.172

@<SCITEGIC>MOL_PROPERTY
U+W
SciTegic.value.DoubleValue
5.252

@<SCITEGIC>MOL_PROPERTY
Grad RMS
SciTegic.value.DoubleValue
0.000000

@<SCITEGIC>MOL_PROPERTY
U
SciTegic.value.DoubleValue
7.482

@<SCITEGIC>MOL_PROPERTY
W
SciTegic.value.DoubleValue
-2.230

@<SCITEGIC>MOL_PROPERTY
W(PB)
SciTegic.value.DoubleValue
-4.220

@<SCITEGIC>MOL_PROPERTY
W(SA)
SciTegic.value.DoubleValue
1.990

@<SCITEGIC>MOL_PROPERTY
Valence
SciTegic.value.DoubleValue
12.309

@<SCITEGIC>MOL_PROPERTY
Coulomb
SciTegic.value.DoubleValue
-7.084

@<SCITEGIC>MOL_PROPERTY
VdW
SciTegic.value.DoubleValue
2.258

@<SCITEGIC>MOL_PROPERTY
VdW6
SciTegic.value.DoubleValue
-9.770

@<SCITEGIC>MOL_PROPERTY
VdW12
SciTegic.value.DoubleValue
12.028

@<SCITEGIC>MOL_PROPERTY
Bond
SciTegic.value.DoubleValue
0.284

@<SCITEGIC>MOL_PROPERTY
Angle
SciTegic.value.DoubleValue
3.491

@<SCITEGIC>MOL_PROPERTY
Pdih
SciTegic.value.DoubleValue
8.535

@<SCITEGIC>MOL_PROPERTY
Idih
SciTegic.value.DoubleValue
0.000

@<SCITEGIC>MOL_PROPERTY
Tether
SciTegic.value.DoubleValue
0.000

@<TRIPOS>MOLECULE
guest-5_confgen4.mol2 : confsearch ligand conformer 527
          22          22           1
SMALL
USER_CHARGES
 
@<TRIPOS>ATOM
       1    C1      18.829785   19.870105   21.618568 C.3        1 MOL1        -0.1685
       2    H1      19.506916   20.130079   20.793710 H          1 MOL1         0.0832
       3    H2      17.811866   19.990680   21.223293 H          1 MOL1         0.0832
       4    C2      18.997232   20.851890   22.800746 C.3        1 MOL1        -0.1685
       5    H3      18.448905   21.775513   22.569431 H          1 MOL1         0.0832
       6    H4      18.498866   20.440649   23.688355 H          1 MOL1         0.0832
       7    C3      20.456168   21.243441   23.146965 C.3        1 MOL1        -0.1685
       8    H5      20.495103   21.539979   24.204255 H          1 MOL1         0.0832
       9    H6      20.716586   22.148383   22.581110 H          1 MOL1         0.0832
      10    C4      21.560567   20.186758   22.873236 C.3        1 MOL1        -0.1761
      11    H7      21.801143   20.188338   21.802220 H          1 MOL1         0.0832
      12    H8      22.478857   20.518722   23.374778 H          1 MOL1         0.0832
      13    C5      21.270359   18.733876   23.314703 C.3        1 MOL1         0.1218
      14    H9      22.239167   18.225485   23.423464 H          1 MOL1         0.0789
      15    C6      20.463289   17.937378   22.264704 C.3        1 MOL1        -0.1761
      16    H10     21.002895   17.968069   21.309222 H          1 MOL1         0.0832
      17    H11     20.456984   16.881903   22.566659 H          1 MOL1         0.0832
      18    C7      19.000332   18.388198   22.029524 C.3        1 MOL1        -0.1685
      19    H12     18.578333   17.759009   21.234069 H          1 MOL1         0.0832
      20    H13     18.397470   18.177567   22.923208 H          1 MOL1         0.0832
      21    O1      20.597823   18.717358   24.564340 O.3        1 MOL1        -0.5509
      22    H14     19.795063   19.254138   24.410300 H          1 MOL1         0.3779
@<TRIPOS>BOND
    1     1     2    1
    2     1     3    1
    3     1     4    1
    4     4     5    1
    5     4     6    1
    6     4     7    1
    7     7     8    1
    8     7     9    1
    9     7    10    1
   10    10    11    1
   11    10    12    1
   12    10    13    1
   13    13    14    1
   14    13    15    1
   15    15    16    1
   16    15    17    1
   17     1    18    1
   18    15    18    1
   19    18    19    1
   20    18    20    1
   21    13    21    1
   22    21    22    1
@<TRIPOS>SUBSTRUCTURE
       1 MOL1            1 RESIDUE      1      MOL     
@<SCITEGIC>MOL_PROPERTY
VConf Rank
SciTegic.value.IntegerValue
527

@<SCITEGIC>MOL_PROPERTY
Conf_Id
SciTegic.value.IntegerValue
99

@<SCITEGIC>MOL_PROPERTY
Delta U+W
SciTegic.value.DoubleValue
-3.852

@<SCITEGIC>MOL_PROPERTY
U+W
SciTegic.value.DoubleValue
2.572

@<SCITEGIC>MOL_PROPERTY
Grad RMS
SciTegic.value.DoubleValue
0.000000

@<SCITEGIC>MOL_PROPERTY
U
SciTegic.value.DoubleValue
3.922

@<SCITEGIC>MOL_PROPERTY
W
SciTegic.value.DoubleValue
-1.350

@<SCITEGIC>MOL_PROPERTY
W(PB)
SciTegic.value.DoubleValue
-3.345

@<SCITEGIC>MOL_PROPERTY
W(SA)
SciTegic.value.DoubleValue
1.995

@<SCITEGIC>MOL_PROPERTY
Valence
SciTegic.value.DoubleValue
12.571

@<SCITEGIC>MOL_PROPERTY
Coulomb
SciTegic.value.DoubleValue
-10.581

@<SCITEGIC>MOL_PROPERTY
VdW
SciTegic.value.DoubleValue
1.932

@<SCITEGIC>MOL_PROPERTY
VdW6
SciTegic.value.DoubleValue
-10.483

@<SCITEGIC>MOL_PROPERTY
VdW12
SciTegic.value.DoubleValue
12.415

@<SCITEGIC>MOL_PROPERTY
Bond
SciTegic.value.DoubleValue
0.268

@<SCITEGIC>MOL_PROPERTY
Angle
SciTegic.value.DoubleValue
3.728

@<SCITEGIC>MOL_PROPERTY
Pdih
SciTegic.value.DoubleValue
8.575

@<SCITEGIC>MOL_PROPERTY
Idih
SciTegic.value.DoubleValue
0.000

@<SCITEGIC>MOL_PROPERTY
Tether
SciTegic.value.DoubleValue
0.000

@<TRIPOS>MOLECULE
guest-5_confgen4.mol2 : confsearch ligand conformer 528
          22          22           1
SMALL
USER_CHARGES
 
@<TRIPOS>ATOM
       1    C1      20.304032   20.244449   21.159724 C.3        1 MOL1        -0.1685
       2    H1      20.475928   20.145739   20.078984 H          1 MOL1         0.0832
       3    H2      20.231667   21.325795   21.337233 H          1 MOL1         0.0832
       4    C2      21.546063   19.661926   21.895846 C.3        1 MOL1        -0.1685
       5    H3      22.255619   19.311232   21.133720 H          1 MOL1         0.0832
       6    H4      22.077376   20.460071   22.431313 H          1 MOL1         0.0832
       7    C3      21.270700   18.482311   22.863024 C.3        1 MOL1        -0.1685
       8    H5      22.233971   18.045477   23.159692 H          1 MOL1         0.0832
       9    H6      20.755960   17.675770   22.326271 H          1 MOL1         0.0832
      10    C4      20.488352   18.832491   24.159224 C.3        1 MOL1        -0.1761
      11    H7      20.026046   17.912628   24.539839 H          1 MOL1         0.0832
      12    H8      21.210680   19.134226   24.929415 H          1 MOL1         0.0832
      13    C5      19.400842   19.932360   24.083268 C.3        1 MOL1         0.1218
      14    H9      18.820527   19.872595   25.015168 H          1 MOL1         0.0789
      15    C6      18.390068   19.817012   22.915717 C.3        1 MOL1        -0.1761
      16    H10     17.679610   19.013672   23.149457 H          1 MOL1         0.0832
      17    H11     17.792431   20.738249   22.903394 H          1 MOL1         0.0832
      18    C7      18.945264   19.573087   21.484963 C.3        1 MOL1        -0.1685
      19    H12     19.009043   18.495132   21.291282 H          1 MOL1         0.0832
      20    H13     18.197797   19.938589   20.767728 H          1 MOL1         0.0832
      21    O1      20.017122   21.210107   24.054959 O.3        1 MOL1        -0.5509
      22    H14     20.516773   21.212983   23.213964 H          1 MOL1         0.3779
@<TRIPOS>BOND
    1     1     2    1
    2     1     3    1
    3     1     4    1
    4     4     5    1
    5     4     6    1
    6     4     7    1
    7     7     8    1
    8     7     9    1
    9     7    10    1
   10    10    11    1
   11    10    12    1
   12    10    13    1
   13    13    14    1
   14    13    15    1
   15    15    16    1
   16    15    17    1
   17     1    18    1
   18    15    18    1
   19    18    19    1
   20    18    20    1
   21    13    21    1
   22    21    22    1
@<TRIPOS>SUBSTRUCTURE
       1 MOL1            1 RESIDUE      1      MOL     
@<SCITEGIC>MOL_PROPERTY
VConf Rank
SciTegic.value.IntegerValue
528

@<SCITEGIC>MOL_PROPERTY
Conf_Id
SciTegic.value.IntegerValue
98

@<SCITEGIC>MOL_PROPERTY
Delta U+W
SciTegic.value.DoubleValue
0.930

@<SCITEGIC>MOL_PROPERTY
U+W
SciTegic.value.DoubleValue
7.353

@<SCITEGIC>MOL_PROPERTY
Grad RMS
SciTegic.value.DoubleValue
0.000000

@<SCITEGIC>MOL_PROPERTY
U
SciTegic.value.DoubleValue
8.455

@<SCITEGIC>MOL_PROPERTY
W
SciTegic.value.DoubleValue
-1.102

@<SCITEGIC>MOL_PROPERTY
W(PB)
SciTegic.value.DoubleValue
-3.101

@<SCITEGIC>MOL_PROPERTY
W(SA)
SciTegic.value.DoubleValue
2.000

@<SCITEGIC>MOL_PROPERTY
Valence
SciTegic.value.DoubleValue
15.601

@<SCITEGIC>MOL_PROPERTY
Coulomb
SciTegic.value.DoubleValue
-10.573

@<SCITEGIC>MOL_PROPERTY
VdW
SciTegic.value.DoubleValue
3.427

@<SCITEGIC>MOL_PROPERTY
VdW6
SciTegic.value.DoubleValue
-11.360

@<SCITEGIC>MOL_PROPERTY
VdW12
SciTegic.value.DoubleValue
14.787

@<SCITEGIC>MOL_PROPERTY
Bond
SciTegic.value.DoubleValue
0.471

@<SCITEGIC>MOL_PROPERTY
Angle
SciTegic.value.DoubleValue
5.445

@<SCITEGIC>MOL_PROPERTY
Pdih
SciTegic.value.DoubleValue
9.685

@<SCITEGIC>MOL_PROPERTY
Idih
SciTegic.value.DoubleValue
0.000

@<SCITEGIC>MOL_PROPERTY
Tether
SciTegic.value.DoubleValue
0.000

@<TRIPOS>MOLECULE
guest-5_confgen4.mol2 : confsearch ligand conformer 529
          22          22           1
SMALL
USER_CHARGES
 
@<TRIPOS>ATOM
       1    C1      19.469750   21.049121   23.255320 C.3        1 MOL1        -0.1685
       2    H1      18.721846   21.039123   22.452002 H          1 MOL1         0.0832
       3    H2      19.257641   21.960314   23.831035 H          1 MOL1         0.0832
       4    C2      20.890259   21.169356   22.647159 C.3        1 MOL1        -0.1685
       5    H3      20.922861   22.100289   22.064772 H          1 MOL1         0.0832
       6    H4      21.625698   21.296808   23.453080 H          1 MOL1         0.0832
       7    C3      21.342274   20.004837   21.722917 C.3        1 MOL1        -0.1685
       8    H5      22.041549   19.349346   22.258044 H          1 MOL1         0.0832
       9    H6      21.929140   20.430582   20.897712 H          1 MOL1         0.0832
      10    C4      20.189797   19.154332   21.126136 C.3        1 MOL1        -0.1761
      11    H7      19.461241   19.820640   20.647737 H          1 MOL1         0.0832
      12    H8      20.597582   18.547845   20.306214 H          1 MOL1         0.0832
      13    C5      19.447867   18.218223   22.124691 C.3        1 MOL1         0.1218
      14    H9      18.367086   18.334830   21.959219 H          1 MOL1         0.0789
      15    C6      19.736126   18.465913   23.626628 C.3        1 MOL1        -0.1761
      16    H10     19.256772   17.673488   24.215984 H          1 MOL1         0.0832
      17    H11     20.809912   18.354831   23.819588 H          1 MOL1         0.0832
      18    C7      19.250410   19.828804   24.180175 C.3        1 MOL1        -0.1685
      19    H12     18.177372   19.759075   24.404988 H          1 MOL1         0.0832
      20    H13     19.748521   20.011466   25.142044 H          1 MOL1         0.0832
      21    O1      19.812173   16.873005   21.836861 O.3        1 MOL1        -0.5509
      22    H14     19.289376   16.303575   22.439033 H          1 MOL1         0.3779
@<TRIPOS>BOND
    1     1     2    1
    2     1     3    1
    3     1     4    1
    4     4     5    1
    5     4     6    1
    6     4     7    1
    7     7     8    1
    8     7     9    1
    9     7    10    1
   10    10    11    1
   11    10    12    1
   12    10    13    1
   13    13    14    1
   14    13    15    1
   15    15    16    1
   16    15    17    1
   17     1    18    1
   18    15    18    1
   19    18    19    1
   20    18    20    1
   21    13    21    1
   22    21    22    1
@<TRIPOS>SUBSTRUCTURE
       1 MOL1            1 RESIDUE      1      MOL     
@<SCITEGIC>MOL_PROPERTY
VConf Rank
SciTegic.value.IntegerValue
529

@<SCITEGIC>MOL_PROPERTY
Conf_Id
SciTegic.value.IntegerValue
141

@<SCITEGIC>MOL_PROPERTY
Delta U+W
SciTegic.value.DoubleValue
0.000

@<SCITEGIC>MOL_PROPERTY
U+W
SciTegic.value.DoubleValue
6.423

@<SCITEGIC>MOL_PROPERTY
Grad RMS
SciTegic.value.DoubleValue
0.000000

@<SCITEGIC>MOL_PROPERTY
U
SciTegic.value.DoubleValue
8.781

@<SCITEGIC>MOL_PROPERTY
W
SciTegic.value.DoubleValue
-2.358

@<SCITEGIC>MOL_PROPERTY
W(PB)
SciTegic.value.DoubleValue
-4.373

@<SCITEGIC>MOL_PROPERTY
W(SA)
SciTegic.value.DoubleValue
2.015

@<SCITEGIC>MOL_PROPERTY
Valence
SciTegic.value.DoubleValue
13.328

@<SCITEGIC>MOL_PROPERTY
Coulomb
SciTegic.value.DoubleValue
-8.387

@<SCITEGIC>MOL_PROPERTY
VdW
SciTegic.value.DoubleValue
3.840

@<SCITEGIC>MOL_PROPERTY
VdW6
SciTegic.value.DoubleValue
-9.744

@<SCITEGIC>MOL_PROPERTY
VdW12
SciTegic.value.DoubleValue
13.584

@<SCITEGIC>MOL_PROPERTY
Bond
SciTegic.value.DoubleValue
0.436

@<SCITEGIC>MOL_PROPERTY
Angle
SciTegic.value.DoubleValue
3.478

@<SCITEGIC>MOL_PROPERTY
Pdih
SciTegic.value.DoubleValue
9.415

@<SCITEGIC>MOL_PROPERTY
Idih
SciTegic.value.DoubleValue
0.000

@<SCITEGIC>MOL_PROPERTY
Tether
SciTegic.value.DoubleValue
0.000

@<TRIPOS>MOLECULE
guest-5_confgen4.mol2 : confsearch ligand conformer 530
          22          22           1
SMALL
USER_CHARGES
 
@<TRIPOS>ATOM
       1    C1      20.308504   20.608169   24.058156 C.3        1 MOL1        -0.1685
       2    H1      19.591352   21.344265   23.670260 H          1 MOL1         0.0832
       3    H2      20.647245   20.996364   25.028447 H          1 MOL1         0.0832
       4    C2      21.547210   20.503048   23.136088 C.3        1 MOL1        -0.1685
       5    H3      22.116295   21.440093   23.206410 H          1 MOL1         0.0832
       6    H4      22.216779   19.718264   23.513805 H          1 MOL1         0.0832
       7    C3      21.238316   20.237352   21.644672 C.3        1 MOL1        -0.1685
       8    H5      22.192396   20.117131   21.113536 H          1 MOL1         0.0832
       9    H6      20.761629   21.125146   21.207008 H          1 MOL1         0.0832
      10    C4      20.359750   18.992330   21.370405 C.3        1 MOL1        -0.1761
      11    H7      20.407549   18.783017   20.293656 H          1 MOL1         0.0832
      12    H8      20.773754   18.108089   21.872117 H          1 MOL1         0.0832
      13    C5      18.883554   19.202961   21.775504 C.3        1 MOL1         0.1218
      14    H9      18.630332   20.260840   21.615464 H          1 MOL1         0.0789
      15    C6      18.563643   18.844641   23.244708 C.3        1 MOL1        -0.1761
      16    H10     17.610221   19.323634   23.502397 H          1 MOL1         0.0832
      17    H11     18.388431   17.763468   23.325179 H          1 MOL1         0.0832
      18    C7      19.622695   19.243643   24.302655 C.3        1 MOL1        -0.1685
      19    H12     19.130963   19.262404   25.284832 H          1 MOL1         0.0832
      20    H13     20.387225   18.457874   24.371715 H          1 MOL1         0.0832
      21    O1      18.059427   18.402294   20.937075 O.3        1 MOL1        -0.5509
      22    H14     18.221788   18.697482   20.016683 H          1 MOL1         0.3779
@<TRIPOS>BOND
    1     1     2    1
    2     1     3    1
    3     1     4    1
    4     4     5    1
    5     4     6    1
    6     4     7    1
    7     7     8    1
    8     7     9    1
    9     7    10    1
   10    10    11    1
   11    10    12    1
   12    10    13    1
   13    13    14    1
   14    13    15    1
   15    15    16    1
   16    15    17    1
   17     1    18    1
   18    15    18    1
   19    18    19    1
   20    18    20    1
   21    13    21    1
   22    21    22    1
@<TRIPOS>SUBSTRUCTURE
       1 MOL1            1 RESIDUE      1      MOL     
@<SCITEGIC>MOL_PROPERTY
VConf Rank
SciTegic.value.IntegerValue
530

@<SCITEGIC>MOL_PROPERTY
Conf_Id
SciTegic.value.IntegerValue
144

@<SCITEGIC>MOL_PROPERTY
Delta U+W
SciTegic.value.DoubleValue
-3.291

@<SCITEGIC>MOL_PROPERTY
U+W
SciTegic.value.DoubleValue
3.132

@<SCITEGIC>MOL_PROPERTY
Grad RMS
SciTegic.value.DoubleValue
0.000000

@<SCITEGIC>MOL_PROPERTY
U
SciTegic.value.DoubleValue
5.411

@<SCITEGIC>MOL_PROPERTY
W
SciTegic.value.DoubleValue
-2.279

@<SCITEGIC>MOL_PROPERTY
W(PB)
SciTegic.value.DoubleValue
-4.300

@<SCITEGIC>MOL_PROPERTY
W(SA)
SciTegic.value.DoubleValue
2.021

@<SCITEGIC>MOL_PROPERTY
Valence
SciTegic.value.DoubleValue
11.909

@<SCITEGIC>MOL_PROPERTY
Coulomb
SciTegic.value.DoubleValue
-8.733

@<SCITEGIC>MOL_PROPERTY
VdW
SciTegic.value.DoubleValue
2.236

@<SCITEGIC>MOL_PROPERTY
VdW6
SciTegic.value.DoubleValue
-8.936

@<SCITEGIC>MOL_PROPERTY
VdW12
SciTegic.value.DoubleValue
11.172

@<SCITEGIC>MOL_PROPERTY
Bond
SciTegic.value.DoubleValue
0.223

@<SCITEGIC>MOL_PROPERTY
Angle
SciTegic.value.DoubleValue
2.457

@<SCITEGIC>MOL_PROPERTY
Pdih
SciTegic.value.DoubleValue
9.228

@<SCITEGIC>MOL_PROPERTY
Idih
SciTegic.value.DoubleValue
0.000

@<SCITEGIC>MOL_PROPERTY
Tether
SciTegic.value.DoubleValue
0.000

@<TRIPOS>MOLECULE
guest-5_confgen4.mol2 : confsearch ligand conformer 531
          22          22           1
SMALL
USER_CHARGES
 
@<TRIPOS>ATOM
       1    C1      19.474884   20.926456   23.602283 C.3        1 MOL1        -0.1685
       2    H1      19.471672   21.846568   24.202512 H          1 MOL1         0.0832
       3    H2      18.423662   20.622399   23.506559 H          1 MOL1         0.0832
       4    C2      20.289926   19.858384   24.368445 C.3        1 MOL1        -0.1685
       5    H3      21.360985   20.007850   24.175401 H          1 MOL1         0.0832
       6    H4      20.161614   20.019954   25.447532 H          1 MOL1         0.0832
       7    C3      19.905855   18.391571   24.057203 C.3        1 MOL1        -0.1685
       8    H5      19.041637   18.109793   24.674167 H          1 MOL1         0.0832
       9    H6      20.730618   17.744615   24.386191 H          1 MOL1         0.0832
      10    C4      19.569870   18.068227   22.580483 C.3        1 MOL1        -0.1761
      11    H7      19.647443   16.980514   22.448834 H          1 MOL1         0.0832
      12    H8      18.518405   18.317156   22.387221 H          1 MOL1         0.0832
      13    C5      20.462836   18.778636   21.538598 C.3        1 MOL1         0.1218
      14    H9      21.482653   18.880696   21.936123 H          1 MOL1         0.0789
      15    C6      19.918982   20.170152   21.142514 C.3        1 MOL1        -0.1761
      16    H10     20.439152   20.505866   20.235403 H          1 MOL1         0.0832
      17    H11     18.858881   20.085268   20.870364 H          1 MOL1         0.0832
      18    C7      20.079637   21.269152   22.219596 C.3        1 MOL1        -0.1685
      19    H12     21.144891   21.510732   22.337068 H          1 MOL1         0.0832
      20    H13     19.604174   22.186728   21.847068 H          1 MOL1         0.0832
      21    O1      20.505386   17.976854   20.365761 O.3        1 MOL1        -0.5509
      22    H14     19.582910   17.908054   20.044102 H          1 MOL1         0.3779
@<TRIPOS>BOND
    1     1     2    1
    2     1     3    1
    3     1     4    1
    4     4     5    1
    5     4     6    1
    6     4     7    1
    7     7     8    1
    8     7     9    1
    9     7    10    1
   10    10    11    1
   11    10    12    1
   12    10    13    1
   13    13    14    1
   14    13    15    1
   15    15    16    1
   16    15    17    1
   17     1    18    1
   18    15    18    1
   19    18    19    1
   20    18    20    1
   21    13    21    1
   22    21    22    1
@<TRIPOS>SUBSTRUCTURE
       1 MOL1            1 RESIDUE      1      MOL     
@<SCITEGIC>MOL_PROPERTY
VConf Rank
SciTegic.value.IntegerValue
531

@<SCITEGIC>MOL_PROPERTY
Conf_Id
SciTegic.value.IntegerValue
76

@<SCITEGIC>MOL_PROPERTY
Delta U+W
SciTegic.value.DoubleValue
-3.175

@<SCITEGIC>MOL_PROPERTY
U+W
SciTegic.value.DoubleValue
3.248

@<SCITEGIC>MOL_PROPERTY
Grad RMS
SciTegic.value.DoubleValue
0.000000

@<SCITEGIC>MOL_PROPERTY
U
SciTegic.value.DoubleValue
5.336

@<SCITEGIC>MOL_PROPERTY
W
SciTegic.value.DoubleValue
-2.088

@<SCITEGIC>MOL_PROPERTY
W(PB)
SciTegic.value.DoubleValue
-4.098

@<SCITEGIC>MOL_PROPERTY
W(SA)
SciTegic.value.DoubleValue
2.010

@<SCITEGIC>MOL_PROPERTY
Valence
SciTegic.value.DoubleValue
12.390

@<SCITEGIC>MOL_PROPERTY
Coulomb
SciTegic.value.DoubleValue
-9.270

@<SCITEGIC>MOL_PROPERTY
VdW
SciTegic.value.DoubleValue
2.216

@<SCITEGIC>MOL_PROPERTY
VdW6
SciTegic.value.DoubleValue
-8.967

@<SCITEGIC>MOL_PROPERTY
VdW12
SciTegic.value.DoubleValue
11.183

@<SCITEGIC>MOL_PROPERTY
Bond
SciTegic.value.DoubleValue
0.218

@<SCITEGIC>MOL_PROPERTY
Angle
SciTegic.value.DoubleValue
2.426

@<SCITEGIC>MOL_PROPERTY
Pdih
SciTegic.value.DoubleValue
9.745

@<SCITEGIC>MOL_PROPERTY
Idih
SciTegic.value.DoubleValue
0.000

@<SCITEGIC>MOL_PROPERTY
Tether
SciTegic.value.DoubleValue
0.000

@<TRIPOS>MOLECULE
guest-5_confgen4.mol2 : confsearch ligand conformer 532
          22          22           1
SMALL
USER_CHARGES
 
@<TRIPOS>ATOM
       1    C1      21.675083   20.357731   23.232475 C.3        1 MOL1        -0.1685
       2    H1      22.668796   19.891309   23.274511 H          1 MOL1         0.0832
       3    H2      21.829606   21.412811   23.496566 H          1 MOL1         0.0832
       4    C2      20.783943   19.696217   24.310874 C.3        1 MOL1        -0.1685
       5    H3      21.027241   18.627495   24.382410 H          1 MOL1         0.0832
       6    H4      21.055412   20.124937   25.285188 H          1 MOL1         0.0832
       7    C3      19.261852   19.863983   24.094920 C.3        1 MOL1        -0.1685
       8    H5      19.029080   20.857877   23.688928 H          1 MOL1         0.0832
       9    H6      18.770549   19.812901   25.075890 H          1 MOL1         0.0832
      10    C4      18.655622   18.749295   23.204956 C.3        1 MOL1        -0.1761
      11    H7      18.964061   17.770117   23.593011 H          1 MOL1         0.0832
      12    H8      17.562734   18.775612   23.306527 H          1 MOL1         0.0832
      13    C5      18.995692   18.817244   21.698691 C.3        1 MOL1         0.1218
      14    H9      18.649601   17.873637   21.252681 H          1 MOL1         0.0789
      15    C6      20.503566   18.951238   21.368768 C.3        1 MOL1        -0.1761
      16    H10     21.058255   18.117418   21.818149 H          1 MOL1         0.0832
      17    H11     20.616940   18.831254   20.283624 H          1 MOL1         0.0832
      18    C7      21.150395   20.300085   21.777964 C.3        1 MOL1        -0.1685
      19    H12     21.995155   20.505150   21.106584 H          1 MOL1         0.0832
      20    H13     20.442193   21.122787   21.613487 H          1 MOL1         0.0832
      21    O1      18.266827   19.884275   21.100173 O.3        1 MOL1        -0.5509
      22    H14     18.549615   19.924435   20.163850 H          1 MOL1         0.3779
@<TRIPOS>BOND
    1     1     2    1
    2     1     3    1
    3     1     4    1
    4     4     5    1
    5     4     6    1
    6     4     7    1
    7     7     8    1
    8     7     9    1
    9     7    10    1
   10    10    11    1
   11    10    12    1
   12    10    13    1
   13    13    14    1
   14    13    15    1
   15    15    16    1
   16    15    17    1
   17     1    18    1
   18    15    18    1
   19    18    19    1
   20    18    20    1
   21    13    21    1
   22    21    22    1
@<TRIPOS>SUBSTRUCTURE
       1 MOL1            1 RESIDUE      1      MOL     
@<SCITEGIC>MOL_PROPERTY
VConf Rank
SciTegic.value.IntegerValue
532

@<SCITEGIC>MOL_PROPERTY
Conf_Id
SciTegic.value.IntegerValue
95

@<SCITEGIC>MOL_PROPERTY
Delta U+W
SciTegic.value.DoubleValue
-2.289

@<SCITEGIC>MOL_PROPERTY
U+W
SciTegic.value.DoubleValue
4.134

@<SCITEGIC>MOL_PROPERTY
Grad RMS
SciTegic.value.DoubleValue
0.000000

@<SCITEGIC>MOL_PROPERTY
U
SciTegic.value.DoubleValue
6.373

@<SCITEGIC>MOL_PROPERTY
W
SciTegic.value.DoubleValue
-2.240

@<SCITEGIC>MOL_PROPERTY
W(PB)
SciTegic.value.DoubleValue
-4.254

@<SCITEGIC>MOL_PROPERTY
W(SA)
SciTegic.value.DoubleValue
2.015

@<SCITEGIC>MOL_PROPERTY
Valence
SciTegic.value.DoubleValue
12.093

@<SCITEGIC>MOL_PROPERTY
Coulomb
SciTegic.value.DoubleValue
-8.058

@<SCITEGIC>MOL_PROPERTY
VdW
SciTegic.value.DoubleValue
2.339

@<SCITEGIC>MOL_PROPERTY
VdW6
SciTegic.value.DoubleValue
-9.683

@<SCITEGIC>MOL_PROPERTY
VdW12
SciTegic.value.DoubleValue
12.022

@<SCITEGIC>MOL_PROPERTY
Bond
SciTegic.value.DoubleValue
0.268

@<SCITEGIC>MOL_PROPERTY
Angle
SciTegic.value.DoubleValue
3.005

@<SCITEGIC>MOL_PROPERTY
Pdih
SciTegic.value.DoubleValue
8.820

@<SCITEGIC>MOL_PROPERTY
Idih
SciTegic.value.DoubleValue
0.000

@<SCITEGIC>MOL_PROPERTY
Tether
SciTegic.value.DoubleValue
0.000

@<TRIPOS>MOLECULE
guest-5_confgen4.mol2 : confsearch ligand conformer 533
          22          22           1
SMALL
USER_CHARGES
 
@<TRIPOS>ATOM
       1    C1      21.338850   19.137198   21.388818 C.3        1 MOL1        -0.1685
       2    H1      21.285755   18.313400   20.664048 H          1 MOL1         0.0832
       3    H2      22.282520   19.658753   21.178441 H          1 MOL1         0.0832
       4    C2      21.409063   18.528110   22.809526 C.3        1 MOL1        -0.1685
       5    H3      20.786623   17.624057   22.851214 H          1 MOL1         0.0832
       6    H4      22.438133   18.183787   22.980571 H          1 MOL1         0.0832
       7    C3      21.003291   19.485784   23.953958 C.3        1 MOL1        -0.1685
       8    H5      21.351031   20.508279   23.752955 H          1 MOL1         0.0832
       9    H6      21.519779   19.162134   24.867696 H          1 MOL1         0.0832
      10    C4      19.480356   19.464172   24.239455 C.3        1 MOL1        -0.1761
      11    H7      19.150674   18.423050   24.350226 H          1 MOL1         0.0832
      12    H8      19.299659   19.932020   25.215902 H          1 MOL1         0.0832
      13    C5      18.580215   20.159175   23.192338 C.3        1 MOL1         0.1218
      14    H9      17.541393   19.904399   23.447367 H          1 MOL1         0.0789
      15    C6      18.810632   19.712649   21.726782 C.3        1 MOL1        -0.1761
      16    H10     18.669332   18.627832   21.639064 H          1 MOL1         0.0832
      17    H11     18.017206   20.168345   21.120444 H          1 MOL1         0.0832
      18    C7      20.177275   20.123333   21.119274 C.3        1 MOL1        -0.1685
      19    H12     20.064089   20.221881   20.031297 H          1 MOL1         0.0832
      20    H13     20.457351   21.124289   21.473202 H          1 MOL1         0.0832
      21    O1      18.730620   21.571265   23.303118 O.3        1 MOL1        -0.5509
      22    H14     18.592487   21.795904   24.245796 H          1 MOL1         0.3779
@<TRIPOS>BOND
    1     1     2    1
    2     1     3    1
    3     1     4    1
    4     4     5    1
    5     4     6    1
    6     4     7    1
    7     7     8    1
    8     7     9    1
    9     7    10    1
   10    10    11    1
   11    10    12    1
   12    10    13    1
   13    13    14    1
   14    13    15    1
   15    15    16    1
   16    15    17    1
   17     1    18    1
   18    15    18    1
   19    18    19    1
   20    18    20    1
   21    13    21    1
   22    21    22    1
@<TRIPOS>SUBSTRUCTURE
       1 MOL1            1 RESIDUE      1      MOL     
@<SCITEGIC>MOL_PROPERTY
VConf Rank
SciTegic.value.IntegerValue
533

@<SCITEGIC>MOL_PROPERTY
Conf_Id
SciTegic.value.IntegerValue
41

@<SCITEGIC>MOL_PROPERTY
Delta U+W
SciTegic.value.DoubleValue
-2.114

@<SCITEGIC>MOL_PROPERTY
U+W
SciTegic.value.DoubleValue
4.310

@<SCITEGIC>MOL_PROPERTY
Grad RMS
SciTegic.value.DoubleValue
0.000000

@<SCITEGIC>MOL_PROPERTY
U
SciTegic.value.DoubleValue
6.598

@<SCITEGIC>MOL_PROPERTY
W
SciTegic.value.DoubleValue
-2.289

@<SCITEGIC>MOL_PROPERTY
W(PB)
SciTegic.value.DoubleValue
-4.294

@<SCITEGIC>MOL_PROPERTY
W(SA)
SciTegic.value.DoubleValue
2.005

@<SCITEGIC>MOL_PROPERTY
Valence
SciTegic.value.DoubleValue
12.082

@<SCITEGIC>MOL_PROPERTY
Coulomb
SciTegic.value.DoubleValue
-7.801

@<SCITEGIC>MOL_PROPERTY
VdW
SciTegic.value.DoubleValue
2.317

@<SCITEGIC>MOL_PROPERTY
VdW6
SciTegic.value.DoubleValue
-9.658

@<SCITEGIC>MOL_PROPERTY
VdW12
SciTegic.value.DoubleValue
11.975

@<SCITEGIC>MOL_PROPERTY
Bond
SciTegic.value.DoubleValue
0.267

@<SCITEGIC>MOL_PROPERTY
Angle
SciTegic.value.DoubleValue
3.051

@<SCITEGIC>MOL_PROPERTY
Pdih
SciTegic.value.DoubleValue
8.764

@<SCITEGIC>MOL_PROPERTY
Idih
SciTegic.value.DoubleValue
0.000

@<SCITEGIC>MOL_PROPERTY
Tether
SciTegic.value.DoubleValue
0.000

@<TRIPOS>MOLECULE
guest-5_confgen4.mol2 : confsearch ligand conformer 534
          22          22           1
SMALL
USER_CHARGES
 
@<TRIPOS>ATOM
       1    C1      19.011533   18.398730   23.285137 C.3        1 MOL1        -0.1685
       2    H1      18.132963   17.845333   23.643490 H          1 MOL1         0.0832
       3    H2      19.741498   17.643055   22.963758 H          1 MOL1         0.0832
       4    C2      19.565317   19.225509   24.467146 C.3        1 MOL1        -0.1685
       5    H3      18.848022   20.014123   24.732019 H          1 MOL1         0.0832
       6    H4      19.635475   18.573859   25.348617 H          1 MOL1         0.0832
       7    C3      20.953955   19.854228   24.218915 C.3        1 MOL1        -0.1685
       8    H5      21.710278   19.059925   24.164630 H          1 MOL1         0.0832
       9    H6      21.217717   20.451381   25.102070 H          1 MOL1         0.0832
      10    C4      21.050889   20.766349   22.965987 C.3        1 MOL1        -0.1761
      11    H7      20.246794   21.512994   22.980475 H          1 MOL1         0.0832
      12    H8      21.985786   21.336276   23.041714 H          1 MOL1         0.0832
      13    C5      21.069129   20.039230   21.596682 C.3        1 MOL1         0.1218
      14    H9      21.455082   20.760518   20.861794 H          1 MOL1         0.0789
      15    C6      19.691055   19.572510   21.059817 C.3        1 MOL1        -0.1761
      16    H10     19.314101   20.345258   20.377301 H          1 MOL1         0.0832
      17    H11     19.833802   18.681100   20.434930 H          1 MOL1         0.0832
      18    C7      18.575383   19.279341   22.093368 C.3        1 MOL1        -0.1685
      19    H12     18.152509   20.223025   22.463573 H          1 MOL1         0.0832
      20    H13     17.753749   18.775356   21.566495 H          1 MOL1         0.0832
      21    O1      21.969556   18.935149   21.630675 O.3        1 MOL1        -0.5509
      22    H14     21.969294   18.542380   20.734214 H          1 MOL1         0.3779
@<TRIPOS>BOND
    1     1     2    1
    2     1     3    1
    3     1     4    1
    4     4     5    1
    5     4     6    1
    6     4     7    1
    7     7     8    1
    8     7     9    1
    9     7    10    1
   10    10    11    1
   11    10    12    1
   12    10    13    1
   13    13    14    1
   14    13    15    1
   15    15    16    1
   16    15    17    1
   17     1    18    1
   18    15    18    1
   19    18    19    1
   20    18    20    1
   21    13    21    1
   22    21    22    1
@<TRIPOS>SUBSTRUCTURE
       1 MOL1            1 RESIDUE      1      MOL     
@<SCITEGIC>MOL_PROPERTY
VConf Rank
SciTegic.value.IntegerValue
534

@<SCITEGIC>MOL_PROPERTY
Conf_Id
SciTegic.value.IntegerValue
104

@<SCITEGIC>MOL_PROPERTY
Delta U+W
SciTegic.value.DoubleValue
-1.172

@<SCITEGIC>MOL_PROPERTY
U+W
SciTegic.value.DoubleValue
5.252

@<SCITEGIC>MOL_PROPERTY
Grad RMS
SciTegic.value.DoubleValue
0.000000

@<SCITEGIC>MOL_PROPERTY
U
SciTegic.value.DoubleValue
7.482

@<SCITEGIC>MOL_PROPERTY
W
SciTegic.value.DoubleValue
-2.230

@<SCITEGIC>MOL_PROPERTY
W(PB)
SciTegic.value.DoubleValue
-4.220

@<SCITEGIC>MOL_PROPERTY
W(SA)
SciTegic.value.DoubleValue
1.990

@<SCITEGIC>MOL_PROPERTY
Valence
SciTegic.value.DoubleValue
12.309

@<SCITEGIC>MOL_PROPERTY
Coulomb
SciTegic.value.DoubleValue
-7.084

@<SCITEGIC>MOL_PROPERTY
VdW
SciTegic.value.DoubleValue
2.258

@<SCITEGIC>MOL_PROPERTY
VdW6
SciTegic.value.DoubleValue
-9.770

@<SCITEGIC>MOL_PROPERTY
VdW12
SciTegic.value.DoubleValue
12.028

@<SCITEGIC>MOL_PROPERTY
Bond
SciTegic.value.DoubleValue
0.284

@<SCITEGIC>MOL_PROPERTY
Angle
SciTegic.value.DoubleValue
3.491

@<SCITEGIC>MOL_PROPERTY
Pdih
SciTegic.value.DoubleValue
8.535

@<SCITEGIC>MOL_PROPERTY
Idih
SciTegic.value.DoubleValue
0.000

@<SCITEGIC>MOL_PROPERTY
Tether
SciTegic.value.DoubleValue
0.000

@<TRIPOS>MOLECULE
guest-5_confgen4.mol2 : confsearch ligand conformer 535
          22          22           1
SMALL
USER_CHARGES
 
@<TRIPOS>ATOM
       1    C1      20.695641   20.019955   21.213005 C.3        1 MOL1        -0.1685
       2    H1      21.684029   20.243613   21.636740 H          1 MOL1         0.0832
       3    H2      20.767776   20.248566   20.140871 H          1 MOL1         0.0832
       4    C2      19.613025   20.940753   21.820918 C.3        1 MOL1        -0.1685
       5    H3      19.665357   21.918941   21.323265 H          1 MOL1         0.0832
       6    H4      18.618948   20.547729   21.570559 H          1 MOL1         0.0832
       7    C3      19.717182   21.182201   23.348180 C.3        1 MOL1        -0.1685
       8    H5      18.718546   21.437435   23.728832 H          1 MOL1         0.0832
       9    H6      20.330724   22.077693   23.517264 H          1 MOL1         0.0832
      10    C4      20.313722   20.036950   24.210584 C.3        1 MOL1        -0.1761
      11    H7      21.407645   20.052709   24.120916 H          1 MOL1         0.0832
      12    H8      20.108240   20.264301   25.264667 H          1 MOL1         0.0832
      13    C5      19.812560   18.603279   23.921785 C.3        1 MOL1         0.1218
      14    H9      20.000969   18.003172   24.823592 H          1 MOL1         0.0789
      15    C6      20.576856   17.922083   22.764161 C.3        1 MOL1        -0.1761
      16    H10     21.649838   17.934917   22.995690 H          1 MOL1         0.0832
      17    H11     20.291848   16.862098   22.743004 H          1 MOL1         0.0832
      18    C7      20.361546   18.515400   21.349803 C.3        1 MOL1        -0.1685
      19    H12     20.997337   17.955992   20.650129 H          1 MOL1         0.0832
      20    H13     19.329465   18.331545   21.021955 H          1 MOL1         0.0832
      21    O1      18.419065   18.606898   23.652847 O.3        1 MOL1        -0.5509
      22    H14     18.323393   19.221289   22.898091 H          1 MOL1         0.3779
@<TRIPOS>BOND
    1     1     2    1
    2     1     3    1
    3     1     4    1
    4     4     5    1
    5     4     6    1
    6     4     7    1
    7     7     8    1
    8     7     9    1
    9     7    10    1
   10    10    11    1
   11    10    12    1
   12    10    13    1
   13    13    14    1
   14    13    15    1
   15    15    16    1
   16    15    17    1
   17     1    18    1
   18    15    18    1
   19    18    19    1
   20    18    20    1
   21    13    21    1
   22    21    22    1
@<TRIPOS>SUBSTRUCTURE
       1 MOL1            1 RESIDUE      1      MOL     
@<SCITEGIC>MOL_PROPERTY
VConf Rank
SciTegic.value.IntegerValue
535

@<SCITEGIC>MOL_PROPERTY
Conf_Id
SciTegic.value.IntegerValue
99

@<SCITEGIC>MOL_PROPERTY
Delta U+W
SciTegic.value.DoubleValue
-3.852

@<SCITEGIC>MOL_PROPERTY
U+W
SciTegic.value.DoubleValue
2.572

@<SCITEGIC>MOL_PROPERTY
Grad RMS
SciTegic.value.DoubleValue
0.000000

@<SCITEGIC>MOL_PROPERTY
U
SciTegic.value.DoubleValue
3.922

@<SCITEGIC>MOL_PROPERTY
W
SciTegic.value.DoubleValue
-1.350

@<SCITEGIC>MOL_PROPERTY
W(PB)
SciTegic.value.DoubleValue
-3.345

@<SCITEGIC>MOL_PROPERTY
W(SA)
SciTegic.value.DoubleValue
1.995

@<SCITEGIC>MOL_PROPERTY
Valence
SciTegic.value.DoubleValue
12.571

@<SCITEGIC>MOL_PROPERTY
Coulomb
SciTegic.value.DoubleValue
-10.581

@<SCITEGIC>MOL_PROPERTY
VdW
SciTegic.value.DoubleValue
1.932

@<SCITEGIC>MOL_PROPERTY
VdW6
SciTegic.value.DoubleValue
-10.483

@<SCITEGIC>MOL_PROPERTY
VdW12
SciTegic.value.DoubleValue
12.415

@<SCITEGIC>MOL_PROPERTY
Bond
SciTegic.value.DoubleValue
0.268

@<SCITEGIC>MOL_PROPERTY
Angle
SciTegic.value.DoubleValue
3.728

@<SCITEGIC>MOL_PROPERTY
Pdih
SciTegic.value.DoubleValue
8.575

@<SCITEGIC>MOL_PROPERTY
Idih
SciTegic.value.DoubleValue
0.000

@<SCITEGIC>MOL_PROPERTY
Tether
SciTegic.value.DoubleValue
0.000

@<TRIPOS>MOLECULE
guest-5_confgen4.mol2 : confsearch ligand conformer 536
          22          22           1
SMALL
USER_CHARGES
 
@<TRIPOS>ATOM
       1    C1      18.981462   18.983796   21.575331 C.3        1 MOL1        -0.1685
       2    H1      18.585410   18.170052   20.952230 H          1 MOL1         0.0832
       3    H2      18.307635   19.832028   21.395018 H          1 MOL1         0.0832
       4    C2      20.414415   19.319685   21.067714 C.3        1 MOL1        -0.1685
       5    H3      20.638524   18.651437   20.224797 H          1 MOL1         0.0832
       6    H4      20.437197   20.331250   20.640780 H          1 MOL1         0.0832
       7    C3      21.555334   19.168855   22.106128 C.3        1 MOL1        -0.1685
       8    H5      22.515991   19.242849   21.578501 H          1 MOL1         0.0832
       9    H6      21.546394   18.153385   22.521231 H          1 MOL1         0.0832
      10    C4      21.566546   20.207816   23.261664 C.3        1 MOL1        -0.1761
      11    H7      22.132230   19.781896   24.100315 H          1 MOL1         0.0832
      12    H8      22.145221   21.082485   22.935958 H          1 MOL1         0.0832
      13    C5      20.207388   20.721094   23.797755 C.3        1 MOL1         0.1218
      14    H9      20.415105   21.254034   24.736692 H          1 MOL1         0.0789
      15    C6      19.145495   19.640710   24.119154 C.3        1 MOL1        -0.1761
      16    H10     19.424891   19.147915   25.059277 H          1 MOL1         0.0832
      17    H11     18.200914   20.158557   24.332693 H          1 MOL1         0.0832
      18    C7      18.872440   18.540181   23.056573 C.3        1 MOL1        -0.1685
      19    H12     19.531105   17.681248   23.235354 H          1 MOL1         0.0832
      20    H13     17.859404   18.151528   23.228134 H          1 MOL1         0.0832
      21    O1      19.664401   21.667290   22.890495 O.3        1 MOL1        -0.5509
      22    H14     19.498369   21.147809   22.078395 H          1 MOL1         0.3779
@<TRIPOS>BOND
    1     1     2    1
    2     1     3    1
    3     1     4    1
    4     4     5    1
    5     4     6    1
    6     4     7    1
    7     7     8    1
    8     7     9    1
    9     7    10    1
   10    10    11    1
   11    10    12    1
   12    10    13    1
   13    13    14    1
   14    13    15    1
   15    15    16    1
   16    15    17    1
   17     1    18    1
   18    15    18    1
   19    18    19    1
   20    18    20    1
   21    13    21    1
   22    21    22    1
@<TRIPOS>SUBSTRUCTURE
       1 MOL1            1 RESIDUE      1      MOL     
@<SCITEGIC>MOL_PROPERTY
VConf Rank
SciTegic.value.IntegerValue
536

@<SCITEGIC>MOL_PROPERTY
Conf_Id
SciTegic.value.IntegerValue
98

@<SCITEGIC>MOL_PROPERTY
Delta U+W
SciTegic.value.DoubleValue
0.930

@<SCITEGIC>MOL_PROPERTY
U+W
SciTegic.value.DoubleValue
7.353

@<SCITEGIC>MOL_PROPERTY
Grad RMS
SciTegic.value.DoubleValue
0.000000

@<SCITEGIC>MOL_PROPERTY
U
SciTegic.value.DoubleValue
8.455

@<SCITEGIC>MOL_PROPERTY
W
SciTegic.value.DoubleValue
-1.102

@<SCITEGIC>MOL_PROPERTY
W(PB)
SciTegic.value.DoubleValue
-3.101

@<SCITEGIC>MOL_PROPERTY
W(SA)
SciTegic.value.DoubleValue
2.000

@<SCITEGIC>MOL_PROPERTY
Valence
SciTegic.value.DoubleValue
15.601

@<SCITEGIC>MOL_PROPERTY
Coulomb
SciTegic.value.DoubleValue
-10.573

@<SCITEGIC>MOL_PROPERTY
VdW
SciTegic.value.DoubleValue
3.427

@<SCITEGIC>MOL_PROPERTY
VdW6
SciTegic.value.DoubleValue
-11.360

@<SCITEGIC>MOL_PROPERTY
VdW12
SciTegic.value.DoubleValue
14.787

@<SCITEGIC>MOL_PROPERTY
Bond
SciTegic.value.DoubleValue
0.471

@<SCITEGIC>MOL_PROPERTY
Angle
SciTegic.value.DoubleValue
5.445

@<SCITEGIC>MOL_PROPERTY
Pdih
SciTegic.value.DoubleValue
9.685

@<SCITEGIC>MOL_PROPERTY
Idih
SciTegic.value.DoubleValue
0.000

@<SCITEGIC>MOL_PROPERTY
Tether
SciTegic.value.DoubleValue
0.000

@<TRIPOS>MOLECULE
guest-5_confgen4.mol2 : confsearch ligand conformer 537
          22          22           1
SMALL
USER_CHARGES
 
@<TRIPOS>ATOM
       1    C1      21.548097   18.877091   23.072910 C.3        1 MOL1        -0.1685
       2    H1      21.139160   17.892499   22.811891 H          1 MOL1         0.0832
       3    H2      22.598301   18.689351   23.334706 H          1 MOL1         0.0832
       4    C2      20.819674   19.432216   24.323268 C.3        1 MOL1        -0.1685
       5    H3      20.969366   18.712640   25.139771 H          1 MOL1         0.0832
       6    H4      21.307600   20.360067   24.651362 H          1 MOL1         0.0832
       7    C3      19.293463   19.683182   24.173806 C.3        1 MOL1        -0.1685
       8    H5      19.098496   20.756870   24.054657 H          1 MOL1         0.0832
       9    H6      18.807304   19.410971   25.120477 H          1 MOL1         0.0832
      10    C4      18.608916   18.902153   23.020940 C.3        1 MOL1        -0.1761
      11    H7      18.859758   17.837728   23.108712 H          1 MOL1         0.0832
      12    H8      17.521818   18.948576   23.170776 H          1 MOL1         0.0832
      13    C5      18.940198   19.388321   21.579495 C.3        1 MOL1         0.1218
      14    H9      19.163566   18.503289   20.966395 H          1 MOL1         0.0789
      15    C6      20.127913   20.375164   21.454070 C.3        1 MOL1        -0.1761
      16    H10     20.182817   20.735545   20.418614 H          1 MOL1         0.0832
      17    H11     19.929990   21.269469   22.057091 H          1 MOL1         0.0832
      18    C7      21.514941   19.796154   21.829181 C.3        1 MOL1        -0.1685
      19    H12     21.905998   19.228041   20.974116 H          1 MOL1         0.0832
      20    H13     22.211921   20.631729   21.979865 H          1 MOL1         0.0832
      21    O1      17.790164   20.035442   21.046736 O.3        1 MOL1        -0.5509
      22    H14     18.005792   20.279305   20.122499 H          1 MOL1         0.3779
@<TRIPOS>BOND
    1     1     2    1
    2     1     3    1
    3     1     4    1
    4     4     5    1
    5     4     6    1
    6     4     7    1
    7     7     8    1
    8     7     9    1
    9     7    10    1
   10    10    11    1
   11    10    12    1
   12    10    13    1
   13    13    14    1
   14    13    15    1
   15    15    16    1
   16    15    17    1
   17     1    18    1
   18    15    18    1
   19    18    19    1
   20    18    20    1
   21    13    21    1
   22    21    22    1
@<TRIPOS>SUBSTRUCTURE
       1 MOL1            1 RESIDUE      1      MOL     
@<SCITEGIC>MOL_PROPERTY
VConf Rank
SciTegic.value.IntegerValue
537

@<SCITEGIC>MOL_PROPERTY
Conf_Id
SciTegic.value.IntegerValue
141

@<SCITEGIC>MOL_PROPERTY
Delta U+W
SciTegic.value.DoubleValue
0.000

@<SCITEGIC>MOL_PROPERTY
U+W
SciTegic.value.DoubleValue
6.423

@<SCITEGIC>MOL_PROPERTY
Grad RMS
SciTegic.value.DoubleValue
0.000000

@<SCITEGIC>MOL_PROPERTY
U
SciTegic.value.DoubleValue
8.781

@<SCITEGIC>MOL_PROPERTY
W
SciTegic.value.DoubleValue
-2.358

@<SCITEGIC>MOL_PROPERTY
W(PB)
SciTegic.value.DoubleValue
-4.373

@<SCITEGIC>MOL_PROPERTY
W(SA)
SciTegic.value.DoubleValue
2.015

@<SCITEGIC>MOL_PROPERTY
Valence
SciTegic.value.DoubleValue
13.328

@<SCITEGIC>MOL_PROPERTY
Coulomb
SciTegic.value.DoubleValue
-8.387

@<SCITEGIC>MOL_PROPERTY
VdW
SciTegic.value.DoubleValue
3.840

@<SCITEGIC>MOL_PROPERTY
VdW6
SciTegic.value.DoubleValue
-9.744

@<SCITEGIC>MOL_PROPERTY
VdW12
SciTegic.value.DoubleValue
13.584

@<SCITEGIC>MOL_PROPERTY
Bond
SciTegic.value.DoubleValue
0.436

@<SCITEGIC>MOL_PROPERTY
Angle
SciTegic.value.DoubleValue
3.478

@<SCITEGIC>MOL_PROPERTY
Pdih
SciTegic.value.DoubleValue
9.415

@<SCITEGIC>MOL_PROPERTY
Idih
SciTegic.value.DoubleValue
0.000

@<SCITEGIC>MOL_PROPERTY
Tether
SciTegic.value.DoubleValue
0.000

@<TRIPOS>MOLECULE
guest-5_confgen4.mol2 : confsearch ligand conformer 538
          22          22           1
SMALL
USER_CHARGES
 
@<TRIPOS>ATOM
       1    C1      21.105495   19.256267   23.953503 C.3        1 MOL1        -0.1685
       2    H1      20.537633   18.339549   24.162712 H          1 MOL1         0.0832
       3    H2      21.958436   19.249774   24.645857 H          1 MOL1         0.0832
       4    C2      20.259002   20.514559   24.263026 C.3        1 MOL1        -0.1685
       5    H3      20.109943   20.577406   25.349620 H          1 MOL1         0.0832
       6    H4      20.827955   21.413020   23.987455 H          1 MOL1         0.0832
       7    C3      18.871412   20.559456   23.582652 C.3        1 MOL1        -0.1685
       8    H5      18.402627   21.523149   23.824239 H          1 MOL1         0.0832
       9    H6      18.222777   19.791391   24.025721 H          1 MOL1         0.0832
      10    C4      18.891865   20.391906   22.043598 C.3        1 MOL1        -0.1761
      11    H7      17.899198   20.670530   21.666152 H          1 MOL1         0.0832
      12    H8      19.600628   21.094829   21.586924 H          1 MOL1         0.0832
      13    C5      19.207051   18.944086   21.605302 C.3        1 MOL1         0.1218
      14    H9      18.790415   18.258486   22.357106 H          1 MOL1         0.0789
      15    C6      20.713285   18.634361   21.448374 C.3        1 MOL1        -0.1761
      16    H10     20.829752   17.542942   21.457885 H          1 MOL1         0.0832
      17    H11     21.050686   18.964162   20.456657 H          1 MOL1         0.0832
      18    C7      21.661591   19.245061   22.510355 C.3        1 MOL1        -0.1685
      19    H12     22.600804   18.675459   22.494348 H          1 MOL1         0.0832
      20    H13     21.933125   20.267880   22.215701 H          1 MOL1         0.0832
      21    O1      18.573411   18.695007   20.356432 O.3        1 MOL1        -0.5509
      22    H14     17.611966   18.823228   20.497154 H          1 MOL1         0.3779
@<TRIPOS>BOND
    1     1     2    1
    2     1     3    1
    3     1     4    1
    4     4     5    1
    5     4     6    1
    6     4     7    1
    7     7     8    1
    8     7     9    1
    9     7    10    1
   10    10    11    1
   11    10    12    1
   12    10    13    1
   13    13    14    1
   14    13    15    1
   15    15    16    1
   16    15    17    1
   17     1    18    1
   18    15    18    1
   19    18    19    1
   20    18    20    1
   21    13    21    1
   22    21    22    1
@<TRIPOS>SUBSTRUCTURE
       1 MOL1            1 RESIDUE      1      MOL     
@<SCITEGIC>MOL_PROPERTY
VConf Rank
SciTegic.value.IntegerValue
538

@<SCITEGIC>MOL_PROPERTY
Conf_Id
SciTegic.value.IntegerValue
144

@<SCITEGIC>MOL_PROPERTY
Delta U+W
SciTegic.value.DoubleValue
-3.291

@<SCITEGIC>MOL_PROPERTY
U+W
SciTegic.value.DoubleValue
3.132

@<SCITEGIC>MOL_PROPERTY
Grad RMS
SciTegic.value.DoubleValue
0.000000

@<SCITEGIC>MOL_PROPERTY
U
SciTegic.value.DoubleValue
5.411

@<SCITEGIC>MOL_PROPERTY
W
SciTegic.value.DoubleValue
-2.279

@<SCITEGIC>MOL_PROPERTY
W(PB)
SciTegic.value.DoubleValue
-4.300

@<SCITEGIC>MOL_PROPERTY
W(SA)
SciTegic.value.DoubleValue
2.021

@<SCITEGIC>MOL_PROPERTY
Valence
SciTegic.value.DoubleValue
11.909

@<SCITEGIC>MOL_PROPERTY
Coulomb
SciTegic.value.DoubleValue
-8.733

@<SCITEGIC>MOL_PROPERTY
VdW
SciTegic.value.DoubleValue
2.236

@<SCITEGIC>MOL_PROPERTY
VdW6
SciTegic.value.DoubleValue
-8.936

@<SCITEGIC>MOL_PROPERTY
VdW12
SciTegic.value.DoubleValue
11.172

@<SCITEGIC>MOL_PROPERTY
Bond
SciTegic.value.DoubleValue
0.223

@<SCITEGIC>MOL_PROPERTY
Angle
SciTegic.value.DoubleValue
2.457

@<SCITEGIC>MOL_PROPERTY
Pdih
SciTegic.value.DoubleValue
9.228

@<SCITEGIC>MOL_PROPERTY
Idih
SciTegic.value.DoubleValue
0.000

@<SCITEGIC>MOL_PROPERTY
Tether
SciTegic.value.DoubleValue
0.000

@<TRIPOS>MOLECULE
guest-5_confgen4.mol2 : confsearch ligand conformer 539
          22          22           1
SMALL
USER_CHARGES
 
@<TRIPOS>ATOM
       1    C1      18.371617   20.243280   22.912798 C.3        1 MOL1        -0.1685
       2    H1      17.533831   20.931547   23.089696 H          1 MOL1         0.0832
       3    H2      17.929041   19.241558   22.826993 H          1 MOL1         0.0832
       4    C2      19.321854   20.323484   24.130456 C.3        1 MOL1        -0.1685
       5    H3      19.987989   21.189723   24.017907 H          1 MOL1         0.0832
       6    H4      18.727757   20.526240   25.032087 H          1 MOL1         0.0832
       7    C3      20.163985   19.051098   24.390788 C.3        1 MOL1        -0.1685
       8    H5      19.560987   18.334793   24.965432 H          1 MOL1         0.0832
       9    H6      21.004378   19.324473   25.043492 H          1 MOL1         0.0832
      10    C4      20.713815   18.323534   23.139198 C.3        1 MOL1        -0.1761
      11    H7      21.535728   17.671251   23.463937 H          1 MOL1         0.0832
      12    H8      19.940286   17.652871   22.743269 H          1 MOL1         0.0832
      13    C5      21.209709   19.254336   22.009911 C.3        1 MOL1         0.1218
      14    H9      21.653206   20.160098   22.447375 H          1 MOL1         0.0789
      15    C6      20.081689   19.650419   21.030285 C.3        1 MOL1        -0.1761
      16    H10     20.534756   20.088386   20.130815 H          1 MOL1         0.0832
      17    H11     19.553803   18.748082   20.695308 H          1 MOL1         0.0832
      18    C7      19.052726   20.662374   21.587867 C.3        1 MOL1        -0.1685
      19    H12     19.537743   21.639209   21.720068 H          1 MOL1         0.0832
      20    H13     18.274943   20.815121   20.827268 H          1 MOL1         0.0832
      21    O1      22.208603   18.565634   21.269564 O.3        1 MOL1        -0.5509
      22    H14     21.777628   17.768113   20.898916 H          1 MOL1         0.3779
@<TRIPOS>BOND
    1     1     2    1
    2     1     3    1
    3     1     4    1
    4     4     5    1
    5     4     6    1
    6     4     7    1
    7     7     8    1
    8     7     9    1
    9     7    10    1
   10    10    11    1
   11    10    12    1
   12    10    13    1
   13    13    14    1
   14    13    15    1
   15    15    16    1
   16    15    17    1
   17     1    18    1
   18    15    18    1
   19    18    19    1
   20    18    20    1
   21    13    21    1
   22    21    22    1
@<TRIPOS>SUBSTRUCTURE
       1 MOL1            1 RESIDUE      1      MOL     
@<SCITEGIC>MOL_PROPERTY
VConf Rank
SciTegic.value.IntegerValue
539

@<SCITEGIC>MOL_PROPERTY
Conf_Id
SciTegic.value.IntegerValue
76

@<SCITEGIC>MOL_PROPERTY
Delta U+W
SciTegic.value.DoubleValue
-3.175

@<SCITEGIC>MOL_PROPERTY
U+W
SciTegic.value.DoubleValue
3.248

@<SCITEGIC>MOL_PROPERTY
Grad RMS
SciTegic.value.DoubleValue
0.000000

@<SCITEGIC>MOL_PROPERTY
U
SciTegic.value.DoubleValue
5.336

@<SCITEGIC>MOL_PROPERTY
W
SciTegic.value.DoubleValue
-2.088

@<SCITEGIC>MOL_PROPERTY
W(PB)
SciTegic.value.DoubleValue
-4.098

@<SCITEGIC>MOL_PROPERTY
W(SA)
SciTegic.value.DoubleValue
2.010

@<SCITEGIC>MOL_PROPERTY
Valence
SciTegic.value.DoubleValue
12.390

@<SCITEGIC>MOL_PROPERTY
Coulomb
SciTegic.value.DoubleValue
-9.270

@<SCITEGIC>MOL_PROPERTY
VdW
SciTegic.value.DoubleValue
2.216

@<SCITEGIC>MOL_PROPERTY
VdW6
SciTegic.value.DoubleValue
-8.967

@<SCITEGIC>MOL_PROPERTY
VdW12
SciTegic.value.DoubleValue
11.183

@<SCITEGIC>MOL_PROPERTY
Bond
SciTegic.value.DoubleValue
0.218

@<SCITEGIC>MOL_PROPERTY
Angle
SciTegic.value.DoubleValue
2.426

@<SCITEGIC>MOL_PROPERTY
Pdih
SciTegic.value.DoubleValue
9.745

@<SCITEGIC>MOL_PROPERTY
Idih
SciTegic.value.DoubleValue
0.000

@<SCITEGIC>MOL_PROPERTY
Tether
SciTegic.value.DoubleValue
0.000

@<TRIPOS>MOLECULE
guest-5_confgen4.mol2 : confsearch ligand conformer 540
          22          22           1
SMALL
USER_CHARGES
 
@<TRIPOS>ATOM
       1    C1      18.981448   18.382221   21.711278 C.3        1 MOL1        -0.1685
       2    H1      19.162456   17.995649   20.699063 H          1 MOL1         0.0832
       3    H2      18.074315   17.874515   22.066467 H          1 MOL1         0.0832
       4    C2      18.698147   19.899911   21.606246 C.3        1 MOL1        -0.1685
       5    H3      19.325852   20.336296   20.817554 H          1 MOL1         0.0832
       6    H4      17.662804   20.028893   21.262426 H          1 MOL1         0.0832
       7    C3      18.894239   20.694476   22.918403 C.3        1 MOL1        -0.1685
       8    H5      18.564348   20.107983   23.786754 H          1 MOL1         0.0832
       9    H6      18.243083   21.578217   22.882500 H          1 MOL1         0.0832
      10    C4      20.350753   21.188962   23.108481 C.3        1 MOL1        -0.1761
      11    H7      20.677091   21.708315   22.198377 H          1 MOL1         0.0832
      12    H8      20.362148   21.948369   23.901315 H          1 MOL1         0.0832
      13    C5      21.397125   20.109577   23.467831 C.3        1 MOL1         0.1218
      14    H9      22.384823   20.585874   23.386032 H          1 MOL1         0.0789
      15    C6      21.410744   18.869628   22.538946 C.3        1 MOL1        -0.1761
      16    H10     21.571987   19.184871   21.499956 H          1 MOL1         0.0832
      17    H11     22.288494   18.266542   22.804706 H          1 MOL1         0.0832
      18    C7      20.154679   17.964472   22.629559 C.3        1 MOL1        -0.1685
      19    H12     20.439599   16.936967   22.365976 H          1 MOL1         0.0832
      20    H13     19.802905   17.911064   23.668233 H          1 MOL1         0.0832
      21    O1      21.210097   19.705890   24.820636 O.3        1 MOL1        -0.5509
      22    H14     21.855085   18.989116   24.989486 H          1 MOL1         0.3779
@<TRIPOS>BOND
    1     1     2    1
    2     1     3    1
    3     1     4    1
    4     4     5    1
    5     4     6    1
    6     4     7    1
    7     7     8    1
    8     7     9    1
    9     7    10    1
   10    10    11    1
   11    10    12    1
   12    10    13    1
   13    13    14    1
   14    13    15    1
   15    15    16    1
   16    15    17    1
   17     1    18    1
   18    15    18    1
   19    18    19    1
   20    18    20    1
   21    13    21    1
   22    21    22    1
@<TRIPOS>SUBSTRUCTURE
       1 MOL1            1 RESIDUE      1      MOL     
@<SCITEGIC>MOL_PROPERTY
VConf Rank
SciTegic.value.IntegerValue
540

@<SCITEGIC>MOL_PROPERTY
Conf_Id
SciTegic.value.IntegerValue
95

@<SCITEGIC>MOL_PROPERTY
Delta U+W
SciTegic.value.DoubleValue
-2.289

@<SCITEGIC>MOL_PROPERTY
U+W
SciTegic.value.DoubleValue
4.134

@<SCITEGIC>MOL_PROPERTY
Grad RMS
SciTegic.value.DoubleValue
0.000000

@<SCITEGIC>MOL_PROPERTY
U
SciTegic.value.DoubleValue
6.373

@<SCITEGIC>MOL_PROPERTY
W
SciTegic.value.DoubleValue
-2.240

@<SCITEGIC>MOL_PROPERTY
W(PB)
SciTegic.value.DoubleValue
-4.254

@<SCITEGIC>MOL_PROPERTY
W(SA)
SciTegic.value.DoubleValue
2.015

@<SCITEGIC>MOL_PROPERTY
Valence
SciTegic.value.DoubleValue
12.093

@<SCITEGIC>MOL_PROPERTY
Coulomb
SciTegic.value.DoubleValue
-8.058

@<SCITEGIC>MOL_PROPERTY
VdW
SciTegic.value.DoubleValue
2.339

@<SCITEGIC>MOL_PROPERTY
VdW6
SciTegic.value.DoubleValue
-9.683

@<SCITEGIC>MOL_PROPERTY
VdW12
SciTegic.value.DoubleValue
12.022

@<SCITEGIC>MOL_PROPERTY
Bond
SciTegic.value.DoubleValue
0.268

@<SCITEGIC>MOL_PROPERTY
Angle
SciTegic.value.DoubleValue
3.005

@<SCITEGIC>MOL_PROPERTY
Pdih
SciTegic.value.DoubleValue
8.820

@<SCITEGIC>MOL_PROPERTY
Idih
SciTegic.value.DoubleValue
0.000

@<SCITEGIC>MOL_PROPERTY
Tether
SciTegic.value.DoubleValue
0.000

@<TRIPOS>MOLECULE
guest-5_confgen4.mol2 : confsearch ligand conformer 541
          22          22           1
SMALL
USER_CHARGES
 
@<TRIPOS>ATOM
       1    C1      20.414329   19.348494   20.852625 C.3        1 MOL1        -0.1685
       2    H1      20.926841   20.025802   20.155962 H          1 MOL1         0.0832
       3    H2      20.185243   18.443320   20.273859 H          1 MOL1         0.0832
       4    C2      19.086964   20.014679   21.286939 C.3        1 MOL1        -0.1685
       5    H3      19.234261   21.099439   21.376821 H          1 MOL1         0.0832
       6    H4      18.359789   19.883832   20.473985 H          1 MOL1         0.0832
       7    C3      18.477500   19.467427   22.598650 C.3        1 MOL1        -0.1685
       8    H5      18.624214   18.381564   22.677369 H          1 MOL1         0.0832
       9    H6      17.391339   19.626480   22.561484 H          1 MOL1         0.0832
      10    C4      19.018205   20.192603   23.856849 C.3        1 MOL1        -0.1761
      11    H7      18.935425   21.277176   23.709387 H          1 MOL1         0.0832
      12    H8      18.359490   19.963118   24.704442 H          1 MOL1         0.0832
      13    C5      20.471336   19.858513   24.264929 C.3        1 MOL1         0.1218
      14    H9      20.752608   20.573344   25.051697 H          1 MOL1         0.0789
      15    C6      21.520136   19.993524   23.132620 C.3        1 MOL1        -0.1761
      16    H10     21.500976   21.011815   22.723712 H          1 MOL1         0.0832
      17    H11     22.509984   19.873280   23.591501 H          1 MOL1         0.0832
      18    C7      21.391018   18.956189   21.986886 C.3        1 MOL1        -0.1685
      19    H12     22.381856   18.799703   21.539708 H          1 MOL1         0.0832
      20    H13     21.101357   17.980139   22.398033 H          1 MOL1         0.0832
      21    O1      20.516419   18.547500   24.820002 O.3        1 MOL1        -0.5509
      22    H14     19.827044   18.511874   25.514032 H          1 MOL1         0.3779
@<TRIPOS>BOND
    1     1     2    1
    2     1     3    1
    3     1     4    1
    4     4     5    1
    5     4     6    1
    6     4     7    1
    7     7     8    1
    8     7     9    1
    9     7    10    1
   10    10    11    1
   11    10    12    1
   12    10    13    1
   13    13    14    1
   14    13    15    1
   15    15    16    1
   16    15    17    1
   17     1    18    1
   18    15    18    1
   19    18    19    1
   20    18    20    1
   21    13    21    1
   22    21    22    1
@<TRIPOS>SUBSTRUCTURE
       1 MOL1            1 RESIDUE      1      MOL     
@<SCITEGIC>MOL_PROPERTY
VConf Rank
SciTegic.value.IntegerValue
541

@<SCITEGIC>MOL_PROPERTY
Conf_Id
SciTegic.value.IntegerValue
41

@<SCITEGIC>MOL_PROPERTY
Delta U+W
SciTegic.value.DoubleValue
-2.114

@<SCITEGIC>MOL_PROPERTY
U+W
SciTegic.value.DoubleValue
4.310

@<SCITEGIC>MOL_PROPERTY
Grad RMS
SciTegic.value.DoubleValue
0.000000

@<SCITEGIC>MOL_PROPERTY
U
SciTegic.value.DoubleValue
6.598

@<SCITEGIC>MOL_PROPERTY
W
SciTegic.value.DoubleValue
-2.289

@<SCITEGIC>MOL_PROPERTY
W(PB)
SciTegic.value.DoubleValue
-4.294

@<SCITEGIC>MOL_PROPERTY
W(SA)
SciTegic.value.DoubleValue
2.005

@<SCITEGIC>MOL_PROPERTY
Valence
SciTegic.value.DoubleValue
12.082

@<SCITEGIC>MOL_PROPERTY
Coulomb
SciTegic.value.DoubleValue
-7.801

@<SCITEGIC>MOL_PROPERTY
VdW
SciTegic.value.DoubleValue
2.317

@<SCITEGIC>MOL_PROPERTY
VdW6
SciTegic.value.DoubleValue
-9.658

@<SCITEGIC>MOL_PROPERTY
VdW12
SciTegic.value.DoubleValue
11.975

@<SCITEGIC>MOL_PROPERTY
Bond
SciTegic.value.DoubleValue
0.267

@<SCITEGIC>MOL_PROPERTY
Angle
SciTegic.value.DoubleValue
3.051

@<SCITEGIC>MOL_PROPERTY
Pdih
SciTegic.value.DoubleValue
8.764

@<SCITEGIC>MOL_PROPERTY
Idih
SciTegic.value.DoubleValue
0.000

@<SCITEGIC>MOL_PROPERTY
Tether
SciTegic.value.DoubleValue
0.000

@<TRIPOS>MOLECULE
guest-5_confgen4.mol2 : confsearch ligand conformer 542
          22          22           1
SMALL
USER_CHARGES
 
@<TRIPOS>ATOM
       1    C1      18.679513   20.210676   23.304034 C.3        1 MOL1        -0.1685
       2    H1      17.686710   20.660819   23.439179 H          1 MOL1         0.0832
       3    H2      18.962567   19.790684   24.279054 H          1 MOL1         0.0832
       4    C2      19.656253   21.333415   22.888315 C.3        1 MOL1        -0.1685
       5    H3      19.393532   21.696415   21.885424 H          1 MOL1         0.0832
       6    H4      19.516409   22.188025   23.564071 H          1 MOL1         0.0832
       7    C3      21.147641   20.933225   22.917141 C.3        1 MOL1        -0.1685
       8    H5      21.463360   20.774523   23.956864 H          1 MOL1         0.0832
       9    H6      21.734685   21.789583   22.559154 H          1 MOL1         0.0832
      10    C4      21.515295   19.694789   22.055576 C.3        1 MOL1        -0.1761
      11    H7      21.131952   19.818792   21.034827 H          1 MOL1         0.0832
      12    H8      22.608400   19.669156   21.960451 H          1 MOL1         0.0832
      13    C5      21.073801   18.319825   22.620013 C.3        1 MOL1         0.1218
      14    H9      21.665246   17.557685   22.092175 H          1 MOL1         0.0789
      15    C6      19.586321   17.942388   22.396219 C.3        1 MOL1        -0.1761
      16    H10     19.526281   17.324072   21.491155 H          1 MOL1         0.0832
      17    H11     19.256195   17.288538   23.214123 H          1 MOL1         0.0832
      18    C7      18.564415   19.095872   22.241029 C.3        1 MOL1        -0.1685
      19    H12     18.643137   19.531236   21.235706 H          1 MOL1         0.0832
      20    H13     17.556978   18.661378   22.295474 H          1 MOL1         0.0832
      21    O1      21.389075   18.225851   24.006624 O.3        1 MOL1        -0.5509
      22    H14     21.126125   17.328682   24.296201 H          1 MOL1         0.3779
@<TRIPOS>BOND
    1     1     2    1
    2     1     3    1
    3     1     4    1
    4     4     5    1
    5     4     6    1
    6     4     7    1
    7     7     8    1
    8     7     9    1
    9     7    10    1
   10    10    11    1
   11    10    12    1
   12    10    13    1
   13    13    14    1
   14    13    15    1
   15    15    16    1
   16    15    17    1
   17     1    18    1
   18    15    18    1
   19    18    19    1
   20    18    20    1
   21    13    21    1
   22    21    22    1
@<TRIPOS>SUBSTRUCTURE
       1 MOL1            1 RESIDUE      1      MOL     
@<SCITEGIC>MOL_PROPERTY
VConf Rank
SciTegic.value.IntegerValue
542

@<SCITEGIC>MOL_PROPERTY
Conf_Id
SciTegic.value.IntegerValue
104

@<SCITEGIC>MOL_PROPERTY
Delta U+W
SciTegic.value.DoubleValue
-1.172

@<SCITEGIC>MOL_PROPERTY
U+W
SciTegic.value.DoubleValue
5.252

@<SCITEGIC>MOL_PROPERTY
Grad RMS
SciTegic.value.DoubleValue
0.000000

@<SCITEGIC>MOL_PROPERTY
U
SciTegic.value.DoubleValue
7.482

@<SCITEGIC>MOL_PROPERTY
W
SciTegic.value.DoubleValue
-2.230

@<SCITEGIC>MOL_PROPERTY
W(PB)
SciTegic.value.DoubleValue
-4.220

@<SCITEGIC>MOL_PROPERTY
W(SA)
SciTegic.value.DoubleValue
1.990

@<SCITEGIC>MOL_PROPERTY
Valence
SciTegic.value.DoubleValue
12.309

@<SCITEGIC>MOL_PROPERTY
Coulomb
SciTegic.value.DoubleValue
-7.084

@<SCITEGIC>MOL_PROPERTY
VdW
SciTegic.value.DoubleValue
2.258

@<SCITEGIC>MOL_PROPERTY
VdW6
SciTegic.value.DoubleValue
-9.770

@<SCITEGIC>MOL_PROPERTY
VdW12
SciTegic.value.DoubleValue
12.028

@<SCITEGIC>MOL_PROPERTY
Bond
SciTegic.value.DoubleValue
0.284

@<SCITEGIC>MOL_PROPERTY
Angle
SciTegic.value.DoubleValue
3.491

@<SCITEGIC>MOL_PROPERTY
Pdih
SciTegic.value.DoubleValue
8.535

@<SCITEGIC>MOL_PROPERTY
Idih
SciTegic.value.DoubleValue
0.000

@<SCITEGIC>MOL_PROPERTY
Tether
SciTegic.value.DoubleValue
0.000

@<TRIPOS>MOLECULE
guest-5_confgen4.mol2 : confsearch ligand conformer 543
          22          22           1
SMALL
USER_CHARGES
 
@<TRIPOS>ATOM
       1    C1      21.261696   20.680853   22.393643 C.3        1 MOL1        -0.1685
       2    H1      21.187806   21.111015   23.401604 H          1 MOL1         0.0832
       3    H2      22.038782   21.258650   21.874773 H          1 MOL1         0.0832
       4    C2      19.938068   20.864354   21.616585 C.3        1 MOL1        -0.1685
       5    H3      19.896458   21.893338   21.233560 H          1 MOL1         0.0832
       6    H4      19.950680   20.228618   20.721589 H          1 MOL1         0.0832
       7    C3      18.642345   20.610128   22.427848 C.3        1 MOL1        -0.1685
       8    H5      17.844321   20.325227   21.728346 H          1 MOL1         0.0832
       9    H6      18.316425   21.561937   22.869168 H          1 MOL1         0.0832
      10    C4      18.713562   19.563803   23.572983 C.3        1 MOL1        -0.1761
      11    H7      19.187341   20.023418   24.450048 H          1 MOL1         0.0832
      12    H8      17.686962   19.335200   23.887365 H          1 MOL1         0.0832
      13    C5      19.429915   18.229098   23.264143 C.3        1 MOL1         0.1218
      14    H9      19.060953   17.485511   23.985134 H          1 MOL1         0.0789
      15    C6      20.961530   18.312334   23.452549 C.3        1 MOL1        -0.1761
      16    H10     21.171979   18.655762   24.473739 H          1 MOL1         0.0832
      17    H11     21.369342   17.294786   23.393129 H          1 MOL1         0.0832
      18    C7      21.733504   19.208461   22.452647 C.3        1 MOL1        -0.1685
      19    H12     22.793621   19.197331   22.740292 H          1 MOL1         0.0832
      20    H13     21.695672   18.764510   21.448678 H          1 MOL1         0.0832
      21    O1      19.121688   17.790167   21.950178 O.3        1 MOL1        -0.5509
      22    H14     19.401059   18.533020   21.378858 H          1 MOL1         0.3779
@<TRIPOS>BOND
    1     1     2    1
    2     1     3    1
    3     1     4    1
    4     4     5    1
    5     4     6    1
    6     4     7    1
    7     7     8    1
    8     7     9    1
    9     7    10    1
   10    10    11    1
   11    10    12    1
   12    10    13    1
   13    13    14    1
   14    13    15    1
   15    15    16    1
   16    15    17    1
   17     1    18    1
   18    15    18    1
   19    18    19    1
   20    18    20    1
   21    13    21    1
   22    21    22    1
@<TRIPOS>SUBSTRUCTURE
       1 MOL1            1 RESIDUE      1      MOL     
@<SCITEGIC>MOL_PROPERTY
VConf Rank
SciTegic.value.IntegerValue
543

@<SCITEGIC>MOL_PROPERTY
Conf_Id
SciTegic.value.IntegerValue
99

@<SCITEGIC>MOL_PROPERTY
Delta U+W
SciTegic.value.DoubleValue
-3.852

@<SCITEGIC>MOL_PROPERTY
U+W
SciTegic.value.DoubleValue
2.572

@<SCITEGIC>MOL_PROPERTY
Grad RMS
SciTegic.value.DoubleValue
0.000000

@<SCITEGIC>MOL_PROPERTY
U
SciTegic.value.DoubleValue
3.922

@<SCITEGIC>MOL_PROPERTY
W
SciTegic.value.DoubleValue
-1.350

@<SCITEGIC>MOL_PROPERTY
W(PB)
SciTegic.value.DoubleValue
-3.345

@<SCITEGIC>MOL_PROPERTY
W(SA)
SciTegic.value.DoubleValue
1.995

@<SCITEGIC>MOL_PROPERTY
Valence
SciTegic.value.DoubleValue
12.571

@<SCITEGIC>MOL_PROPERTY
Coulomb
SciTegic.value.DoubleValue
-10.581

@<SCITEGIC>MOL_PROPERTY
VdW
SciTegic.value.DoubleValue
1.932

@<SCITEGIC>MOL_PROPERTY
VdW6
SciTegic.value.DoubleValue
-10.483

@<SCITEGIC>MOL_PROPERTY
VdW12
SciTegic.value.DoubleValue
12.415

@<SCITEGIC>MOL_PROPERTY
Bond
SciTegic.value.DoubleValue
0.268

@<SCITEGIC>MOL_PROPERTY
Angle
SciTegic.value.DoubleValue
3.728

@<SCITEGIC>MOL_PROPERTY
Pdih
SciTegic.value.DoubleValue
8.575

@<SCITEGIC>MOL_PROPERTY
Idih
SciTegic.value.DoubleValue
0.000

@<SCITEGIC>MOL_PROPERTY
Tether
SciTegic.value.DoubleValue
0.000

@<TRIPOS>MOLECULE
guest-5_confgen4.mol2 : confsearch ligand conformer 544
          22          22           1
SMALL
USER_CHARGES
 
@<TRIPOS>ATOM
       1    C1      20.895858   19.270873   21.262056 C.3        1 MOL1        -0.1685
       2    H1      21.691736   18.765848   20.697415 H          1 MOL1         0.0832
       3    H2      20.345792   19.856726   20.513551 H          1 MOL1         0.0832
       4    C2      21.571649   20.219597   22.295052 C.3        1 MOL1        -0.1685
       5    H3      22.660026   20.125330   22.177412 H          1 MOL1         0.0832
       6    H4      21.349968   21.266623   22.048787 H          1 MOL1         0.0832
       7    C3      21.232892   19.953792   23.784126 C.3        1 MOL1        -0.1685
       8    H5      21.912914   20.551606   24.406150 H          1 MOL1         0.0832
       9    H6      21.470352   18.913220   24.037885 H          1 MOL1         0.0832
      10    C4      19.777921   20.281274   24.220756 C.3        1 MOL1        -0.1761
      11    H7      19.554758   19.706445   25.128782 H          1 MOL1         0.0832
      12    H8      19.736676   21.335046   24.527123 H          1 MOL1         0.0832
      13    C5      18.637127   20.047369   23.199955 C.3        1 MOL1         0.1218
      14    H9      17.691518   20.114682   23.756791 H          1 MOL1         0.0789
      15    C6      18.636038   18.678759   22.475352 C.3        1 MOL1        -0.1761
      16    H10     18.277690   17.914552   23.177004 H          1 MOL1         0.0832
      17    H11     17.876564   18.724383   21.683447 H          1 MOL1         0.0832
      18    C7      19.967474   18.177665   21.850066 C.3        1 MOL1        -0.1685
      19    H12     20.519622   17.579057   22.585164 H          1 MOL1         0.0832
      20    H13     19.716681   17.468733   21.049289 H          1 MOL1         0.0832
      21    O1      18.634023   21.093541   22.241436 O.3        1 MOL1        -0.5509
      22    H14     19.488592   20.990780   21.776588 H          1 MOL1         0.3779
@<TRIPOS>BOND
    1     1     2    1
    2     1     3    1
    3     1     4    1
    4     4     5    1
    5     4     6    1
    6     4     7    1
    7     7     8    1
    8     7     9    1
    9     7    10    1
   10    10    11    1
   11    10    12    1
   12    10    13    1
   13    13    14    1
   14    13    15    1
   15    15    16    1
   16    15    17    1
   17     1    18    1
   18    15    18    1
   19    18    19    1
   20    18    20    1
   21    13    21    1
   22    21    22    1
@<TRIPOS>SUBSTRUCTURE
       1 MOL1            1 RESIDUE      1      MOL     
@<SCITEGIC>MOL_PROPERTY
VConf Rank
SciTegic.value.IntegerValue
544

@<SCITEGIC>MOL_PROPERTY
Conf_Id
SciTegic.value.IntegerValue
98

@<SCITEGIC>MOL_PROPERTY
Delta U+W
SciTegic.value.DoubleValue
0.930

@<SCITEGIC>MOL_PROPERTY
U+W
SciTegic.value.DoubleValue
7.353

@<SCITEGIC>MOL_PROPERTY
Grad RMS
SciTegic.value.DoubleValue
0.000000

@<SCITEGIC>MOL_PROPERTY
U
SciTegic.value.DoubleValue
8.455

@<SCITEGIC>MOL_PROPERTY
W
SciTegic.value.DoubleValue
-1.102

@<SCITEGIC>MOL_PROPERTY
W(PB)
SciTegic.value.DoubleValue
-3.101

@<SCITEGIC>MOL_PROPERTY
W(SA)
SciTegic.value.DoubleValue
2.000

@<SCITEGIC>MOL_PROPERTY
Valence
SciTegic.value.DoubleValue
15.601

@<SCITEGIC>MOL_PROPERTY
Coulomb
SciTegic.value.DoubleValue
-10.573

@<SCITEGIC>MOL_PROPERTY
VdW
SciTegic.value.DoubleValue
3.427

@<SCITEGIC>MOL_PROPERTY
VdW6
SciTegic.value.DoubleValue
-11.360

@<SCITEGIC>MOL_PROPERTY
VdW12
SciTegic.value.DoubleValue
14.787

@<SCITEGIC>MOL_PROPERTY
Bond
SciTegic.value.DoubleValue
0.471

@<SCITEGIC>MOL_PROPERTY
Angle
SciTegic.value.DoubleValue
5.445

@<SCITEGIC>MOL_PROPERTY
Pdih
SciTegic.value.DoubleValue
9.685

@<SCITEGIC>MOL_PROPERTY
Idih
SciTegic.value.DoubleValue
0.000

@<SCITEGIC>MOL_PROPERTY
Tether
SciTegic.value.DoubleValue
0.000

@<TRIPOS>MOLECULE
guest-5_confgen4.mol2 : confsearch ligand conformer 545
          22          22           1
SMALL
USER_CHARGES
 
@<TRIPOS>ATOM
       1    C1      20.478426   18.989325   21.091867 C.3        1 MOL1        -0.1685
       2    H1      21.139528   19.863977   21.039816 H          1 MOL1         0.0832
       3    H2      20.663167   18.436474   20.160772 H          1 MOL1         0.0832
       4    C2      18.998950   19.450960   21.106191 C.3        1 MOL1        -0.1685
       5    H3      18.822992   20.025601   20.186571 H          1 MOL1         0.0832
       6    H4      18.339723   18.574788   21.040125 H          1 MOL1         0.0832
       7    C3      18.564638   20.326776   22.314067 C.3        1 MOL1        -0.1685
       8    H5      17.985578   19.724917   23.026436 H          1 MOL1         0.0832
       9    H6      17.861319   21.087918   21.949869 H          1 MOL1         0.0832
      10    C4      19.724159   21.038083   23.060569 C.3        1 MOL1        -0.1761
      11    H7      20.336943   21.586438   22.334327 H          1 MOL1         0.0832
      12    H8      19.293147   21.813677   23.707925 H          1 MOL1         0.0832
      13    C5      20.645186   20.120927   23.917544 C.3        1 MOL1         0.1218
      14    H9      21.688643   20.394347   23.704224 H          1 MOL1         0.0789
      15    C6      20.487988   18.597184   23.685691 C.3        1 MOL1        -0.1761
      16    H10     21.094594   18.060435   24.426628 H          1 MOL1         0.0832
      17    H11     19.453720   18.297114   23.892662 H          1 MOL1         0.0832
      18    C7      20.900280   18.093254   22.280032 C.3        1 MOL1        -0.1685
      19    H12     21.992344   17.977895   22.249995 H          1 MOL1         0.0832
      20    H13     20.486814   17.085771   22.136174 H          1 MOL1         0.0832
      21    O1      20.378282   20.372709   25.292515 O.3        1 MOL1        -0.5509
      22    H14     21.008833   19.827232   25.807335 H          1 MOL1         0.3779
@<TRIPOS>BOND
    1     1     2    1
    2     1     3    1
    3     1     4    1
    4     4     5    1
    5     4     6    1
    6     4     7    1
    7     7     8    1
    8     7     9    1
    9     7    10    1
   10    10    11    1
   11    10    12    1
   12    10    13    1
   13    13    14    1
   14    13    15    1
   15    15    16    1
   16    15    17    1
   17     1    18    1
   18    15    18    1
   19    18    19    1
   20    18    20    1
   21    13    21    1
   22    21    22    1
@<TRIPOS>SUBSTRUCTURE
       1 MOL1            1 RESIDUE      1      MOL     
@<SCITEGIC>MOL_PROPERTY
VConf Rank
SciTegic.value.IntegerValue
545

@<SCITEGIC>MOL_PROPERTY
Conf_Id
SciTegic.value.IntegerValue
141

@<SCITEGIC>MOL_PROPERTY
Delta U+W
SciTegic.value.DoubleValue
0.000

@<SCITEGIC>MOL_PROPERTY
U+W
SciTegic.value.DoubleValue
6.423

@<SCITEGIC>MOL_PROPERTY
Grad RMS
SciTegic.value.DoubleValue
0.000000

@<SCITEGIC>MOL_PROPERTY
U
SciTegic.value.DoubleValue
8.781

@<SCITEGIC>MOL_PROPERTY
W
SciTegic.value.DoubleValue
-2.358

@<SCITEGIC>MOL_PROPERTY
W(PB)
SciTegic.value.DoubleValue
-4.373

@<SCITEGIC>MOL_PROPERTY
W(SA)
SciTegic.value.DoubleValue
2.015

@<SCITEGIC>MOL_PROPERTY
Valence
SciTegic.value.DoubleValue
13.328

@<SCITEGIC>MOL_PROPERTY
Coulomb
SciTegic.value.DoubleValue
-8.387

@<SCITEGIC>MOL_PROPERTY
VdW
SciTegic.value.DoubleValue
3.840

@<SCITEGIC>MOL_PROPERTY
VdW6
SciTegic.value.DoubleValue
-9.744

@<SCITEGIC>MOL_PROPERTY
VdW12
SciTegic.value.DoubleValue
13.584

@<SCITEGIC>MOL_PROPERTY
Bond
SciTegic.value.DoubleValue
0.436

@<SCITEGIC>MOL_PROPERTY
Angle
SciTegic.value.DoubleValue
3.478

@<SCITEGIC>MOL_PROPERTY
Pdih
SciTegic.value.DoubleValue
9.415

@<SCITEGIC>MOL_PROPERTY
Idih
SciTegic.value.DoubleValue
0.000

@<SCITEGIC>MOL_PROPERTY
Tether
SciTegic.value.DoubleValue
0.000

@<TRIPOS>MOLECULE
guest-5_confgen4.mol2 : confsearch ligand conformer 546
          22          22           1
SMALL
USER_CHARGES
 
@<TRIPOS>ATOM
       1    C1      20.378436   17.945732   23.021822 C.3        1 MOL1        -0.1685
       2    H1      19.637275   17.971671   23.832140 H          1 MOL1         0.0832
       3    H2      20.767160   16.918474   22.998620 H          1 MOL1         0.0832
       4    C2      21.565877   18.890362   23.327296 C.3        1 MOL1        -0.1685
       5    H3      22.132785   18.477602   24.172932 H          1 MOL1         0.0832
       6    H4      22.259241   18.890986   22.475167 H          1 MOL1         0.0832
       7    C3      21.178025   20.346783   23.671881 C.3        1 MOL1        -0.1685
       8    H5      22.102544   20.926246   23.799608 H          1 MOL1         0.0832
       9    H6      20.673438   20.368898   24.647516 H          1 MOL1         0.0832
      10    C4      20.292727   21.054850   22.617334 C.3        1 MOL1        -0.1761
      11    H7      20.283214   22.126202   22.857332 H          1 MOL1         0.0832
      12    H8      20.738176   20.969732   21.617671 H          1 MOL1         0.0832
      13    C5      18.839536   20.529692   22.608865 C.3        1 MOL1         0.1218
      14    H9      18.572204   20.240247   23.635315 H          1 MOL1         0.0789
      15    C6      18.601739   19.313754   21.684612 C.3        1 MOL1        -0.1761
      16    H10     17.661079   18.840778   21.994938 H          1 MOL1         0.0832
      17    H11     18.437087   19.664991   20.657172 H          1 MOL1         0.0832
      18    C7      19.714397   18.236167   21.655535 C.3        1 MOL1        -0.1685
      19    H12     19.276554   17.306614   21.266886 H          1 MOL1         0.0832
      20    H13     20.485849   18.524115   20.928446 H          1 MOL1         0.0832
      21    O1      17.975563   21.578511   22.188453 O.3        1 MOL1        -0.5509
      22    H14     18.086152   22.310102   22.831230 H          1 MOL1         0.3779
@<TRIPOS>BOND
    1     1     2    1
    2     1     3    1
    3     1     4    1
    4     4     5    1
    5     4     6    1
    6     4     7    1
    7     7     8    1
    8     7     9    1
    9     7    10    1
   10    10    11    1
   11    10    12    1
   12    10    13    1
   13    13    14    1
   14    13    15    1
   15    15    16    1
   16    15    17    1
   17     1    18    1
   18    15    18    1
   19    18    19    1
   20    18    20    1
   21    13    21    1
   22    21    22    1
@<TRIPOS>SUBSTRUCTURE
       1 MOL1            1 RESIDUE      1      MOL     
@<SCITEGIC>MOL_PROPERTY
VConf Rank
SciTegic.value.IntegerValue
546

@<SCITEGIC>MOL_PROPERTY
Conf_Id
SciTegic.value.IntegerValue
144

@<SCITEGIC>MOL_PROPERTY
Delta U+W
SciTegic.value.DoubleValue
-3.291

@<SCITEGIC>MOL_PROPERTY
U+W
SciTegic.value.DoubleValue
3.132

@<SCITEGIC>MOL_PROPERTY
Grad RMS
SciTegic.value.DoubleValue
0.000000

@<SCITEGIC>MOL_PROPERTY
U
SciTegic.value.DoubleValue
5.411

@<SCITEGIC>MOL_PROPERTY
W
SciTegic.value.DoubleValue
-2.279

@<SCITEGIC>MOL_PROPERTY
W(PB)
SciTegic.value.DoubleValue
-4.300

@<SCITEGIC>MOL_PROPERTY
W(SA)
SciTegic.value.DoubleValue
2.021

@<SCITEGIC>MOL_PROPERTY
Valence
SciTegic.value.DoubleValue
11.909

@<SCITEGIC>MOL_PROPERTY
Coulomb
SciTegic.value.DoubleValue
-8.733

@<SCITEGIC>MOL_PROPERTY
VdW
SciTegic.value.DoubleValue
2.236

@<SCITEGIC>MOL_PROPERTY
VdW6
SciTegic.value.DoubleValue
-8.936

@<SCITEGIC>MOL_PROPERTY
VdW12
SciTegic.value.DoubleValue
11.172

@<SCITEGIC>MOL_PROPERTY
Bond
SciTegic.value.DoubleValue
0.223

@<SCITEGIC>MOL_PROPERTY
Angle
SciTegic.value.DoubleValue
2.457

@<SCITEGIC>MOL_PROPERTY
Pdih
SciTegic.value.DoubleValue
9.228

@<SCITEGIC>MOL_PROPERTY
Idih
SciTegic.value.DoubleValue
0.000

@<SCITEGIC>MOL_PROPERTY
Tether
SciTegic.value.DoubleValue
0.000

@<TRIPOS>MOLECULE
guest-5_confgen4.mol2 : confsearch ligand conformer 547
          22          22           1
SMALL
USER_CHARGES
 
@<TRIPOS>ATOM
       1    C1      19.325164   18.640845   21.314198 C.3        1 MOL1        -0.1685
       2    H1      19.144248   18.212407   20.318909 H          1 MOL1         0.0832
       3    H2      18.609788   18.152565   21.989847 H          1 MOL1         0.0832
       4    C2      19.058731   20.162331   21.235660 C.3        1 MOL1        -0.1685
       5    H3      19.948302   20.669174   20.837481 H          1 MOL1         0.0832
       6    H4      18.263320   20.346325   20.500495 H          1 MOL1         0.0832
       7    C3      18.637179   20.824594   22.569685 C.3        1 MOL1        -0.1685
       8    H5      17.556233   20.688111   22.710556 H          1 MOL1         0.0832
       9    H6      18.791286   21.908459   22.477455 H          1 MOL1         0.0832
      10    C4      19.356998   20.319833   23.844526 C.3        1 MOL1        -0.1761
      11    H7      19.217662   21.074811   24.630060 H          1 MOL1         0.0832
      12    H8      18.853228   19.415086   24.208590 H          1 MOL1         0.0832
      13    C5      20.864628   20.029817   23.669785 C.3        1 MOL1         0.1218
      14    H9      21.296248   20.743258   22.953422 H          1 MOL1         0.0789
      15    C6      21.138761   18.585554   23.192361 C.3        1 MOL1        -0.1761
      16    H10     22.205765   18.365772   23.331391 H          1 MOL1         0.0832
      17    H11     20.597341   17.878540   23.834298 H          1 MOL1         0.0832
      18    C7      20.781805   18.303660   21.713566 C.3        1 MOL1        -0.1685
      19    H12     21.475166   18.851598   21.060926 H          1 MOL1         0.0832
      20    H13     20.961994   17.238499   21.514185 H          1 MOL1         0.0832
      21    O1      21.501472   20.201372   24.928836 O.3        1 MOL1        -0.5509
      22    H14     21.090754   19.553016   25.537197 H          1 MOL1         0.3779
@<TRIPOS>BOND
    1     1     2    1
    2     1     3    1
    3     1     4    1
    4     4     5    1
    5     4     6    1
    6     4     7    1
    7     7     8    1
    8     7     9    1
    9     7    10    1
   10    10    11    1
   11    10    12    1
   12    10    13    1
   13    13    14    1
   14    13    15    1
   15    15    16    1
   16    15    17    1
   17     1    18    1
   18    15    18    1
   19    18    19    1
   20    18    20    1
   21    13    21    1
   22    21    22    1
@<TRIPOS>SUBSTRUCTURE
       1 MOL1            1 RESIDUE      1      MOL     
@<SCITEGIC>MOL_PROPERTY
VConf Rank
SciTegic.value.IntegerValue
547

@<SCITEGIC>MOL_PROPERTY
Conf_Id
SciTegic.value.IntegerValue
76

@<SCITEGIC>MOL_PROPERTY
Delta U+W
SciTegic.value.DoubleValue
-3.175

@<SCITEGIC>MOL_PROPERTY
U+W
SciTegic.value.DoubleValue
3.248

@<SCITEGIC>MOL_PROPERTY
Grad RMS
SciTegic.value.DoubleValue
0.000000

@<SCITEGIC>MOL_PROPERTY
U
SciTegic.value.DoubleValue
5.336

@<SCITEGIC>MOL_PROPERTY
W
SciTegic.value.DoubleValue
-2.088

@<SCITEGIC>MOL_PROPERTY
W(PB)
SciTegic.value.DoubleValue
-4.098

@<SCITEGIC>MOL_PROPERTY
W(SA)
SciTegic.value.DoubleValue
2.010

@<SCITEGIC>MOL_PROPERTY
Valence
SciTegic.value.DoubleValue
12.390

@<SCITEGIC>MOL_PROPERTY
Coulomb
SciTegic.value.DoubleValue
-9.270

@<SCITEGIC>MOL_PROPERTY
VdW
SciTegic.value.DoubleValue
2.216

@<SCITEGIC>MOL_PROPERTY
VdW6
SciTegic.value.DoubleValue
-8.967

@<SCITEGIC>MOL_PROPERTY
VdW12
SciTegic.value.DoubleValue
11.183

@<SCITEGIC>MOL_PROPERTY
Bond
SciTegic.value.DoubleValue
0.218

@<SCITEGIC>MOL_PROPERTY
Angle
SciTegic.value.DoubleValue
2.426

@<SCITEGIC>MOL_PROPERTY
Pdih
SciTegic.value.DoubleValue
9.745

@<SCITEGIC>MOL_PROPERTY
Idih
SciTegic.value.DoubleValue
0.000

@<SCITEGIC>MOL_PROPERTY
Tether
SciTegic.value.DoubleValue
0.000

@<TRIPOS>MOLECULE
guest-5_confgen4.mol2 : confsearch ligand conformer 548
          22          22           1
SMALL
USER_CHARGES
 
@<TRIPOS>ATOM
       1    C1      21.002794   20.701932   23.843314 C.3        1 MOL1        -0.1685
       2    H1      21.345786   20.480821   24.863240 H          1 MOL1         0.0832
       3    H2      21.391122   21.702383   23.608549 H          1 MOL1         0.0832
       4    C2      19.456229   20.754000   23.853425 C.3        1 MOL1        -0.1685
       5    H3      19.068470   19.996984   24.548442 H          1 MOL1         0.0832
       6    H4      19.151994   21.722078   24.274197 H          1 MOL1         0.0832
       7    C3      18.786450   20.574440   22.471146 C.3        1 MOL1        -0.1685
       8    H5      19.371977   21.067271   21.683039 H          1 MOL1         0.0832
       9    H6      17.814866   21.086100   22.493919 H          1 MOL1         0.0832
      10    C4      18.528543   19.087555   22.117963 C.3        1 MOL1        -0.1761
      11    H7      18.006029   18.603771   22.953095 H          1 MOL1         0.0832
      12    H8      17.832258   19.044641   21.270166 H          1 MOL1         0.0832
      13    C5      19.773147   18.245887   21.755123 C.3        1 MOL1         0.1218
      14    H9      19.445534   17.197048   21.713860 H          1 MOL1         0.0789
      15    C6      20.938498   18.319632   22.773458 C.3        1 MOL1        -0.1761
      16    H10     20.584358   18.015139   23.766810 H          1 MOL1         0.0832
      17    H11     21.681907   17.566949   22.480887 H          1 MOL1         0.0832
      18    C7      21.649706   19.694929   22.862665 C.3        1 MOL1        -0.1685
      19    H12     22.689029   19.535537   23.180195 H          1 MOL1         0.0832
      20    H13     21.717010   20.149658   21.865603 H          1 MOL1         0.0832
      21    O1      20.230995   18.618808   20.459234 O.3        1 MOL1        -0.5509
      22    H14     21.045518   18.102248   20.291895 H          1 MOL1         0.3779
@<TRIPOS>BOND
    1     1     2    1
    2     1     3    1
    3     1     4    1
    4     4     5    1
    5     4     6    1
    6     4     7    1
    7     7     8    1
    8     7     9    1
    9     7    10    1
   10    10    11    1
   11    10    12    1
   12    10    13    1
   13    13    14    1
   14    13    15    1
   15    15    16    1
   16    15    17    1
   17     1    18    1
   18    15    18    1
   19    18    19    1
   20    18    20    1
   21    13    21    1
   22    21    22    1
@<TRIPOS>SUBSTRUCTURE
       1 MOL1            1 RESIDUE      1      MOL     
@<SCITEGIC>MOL_PROPERTY
VConf Rank
SciTegic.value.IntegerValue
548

@<SCITEGIC>MOL_PROPERTY
Conf_Id
SciTegic.value.IntegerValue
95

@<SCITEGIC>MOL_PROPERTY
Delta U+W
SciTegic.value.DoubleValue
-2.289

@<SCITEGIC>MOL_PROPERTY
U+W
SciTegic.value.DoubleValue
4.134

@<SCITEGIC>MOL_PROPERTY
Grad RMS
SciTegic.value.DoubleValue
0.000000

@<SCITEGIC>MOL_PROPERTY
U
SciTegic.value.DoubleValue
6.373

@<SCITEGIC>MOL_PROPERTY
W
SciTegic.value.DoubleValue
-2.240

@<SCITEGIC>MOL_PROPERTY
W(PB)
SciTegic.value.DoubleValue
-4.254

@<SCITEGIC>MOL_PROPERTY
W(SA)
SciTegic.value.DoubleValue
2.015

@<SCITEGIC>MOL_PROPERTY
Valence
SciTegic.value.DoubleValue
12.093

@<SCITEGIC>MOL_PROPERTY
Coulomb
SciTegic.value.DoubleValue
-8.058

@<SCITEGIC>MOL_PROPERTY
VdW
SciTegic.value.DoubleValue
2.339

@<SCITEGIC>MOL_PROPERTY
VdW6
SciTegic.value.DoubleValue
-9.683

@<SCITEGIC>MOL_PROPERTY
VdW12
SciTegic.value.DoubleValue
12.022

@<SCITEGIC>MOL_PROPERTY
Bond
SciTegic.value.DoubleValue
0.268

@<SCITEGIC>MOL_PROPERTY
Angle
SciTegic.value.DoubleValue
3.005

@<SCITEGIC>MOL_PROPERTY
Pdih
SciTegic.value.DoubleValue
8.820

@<SCITEGIC>MOL_PROPERTY
Idih
SciTegic.value.DoubleValue
0.000

@<SCITEGIC>MOL_PROPERTY
Tether
SciTegic.value.DoubleValue
0.000

@<TRIPOS>MOLECULE
guest-5_confgen4.mol2 : confsearch ligand conformer 549
          22          22           1
SMALL
USER_CHARGES
 
@<TRIPOS>ATOM
       1    C1      20.739679   19.864477   20.941992 C.3        1 MOL1        -0.1685
       2    H1      20.287171   19.553455   19.990543 H          1 MOL1         0.0832
       3    H2      21.670208   20.383145   20.673870 H          1 MOL1         0.0832
       4    C2      21.090245   18.592211   21.749936 C.3        1 MOL1        -0.1685
       5    H3      20.320330   17.827383   21.580385 H          1 MOL1         0.0832
       6    H4      22.017082   18.172126   21.336051 H          1 MOL1         0.0832
       7    C3      21.272945   18.810731   23.269931 C.3        1 MOL1        -0.1685
       8    H5      21.767572   19.770474   23.472556 H          1 MOL1         0.0832
       9    H6      21.950829   18.032832   23.646459 H          1 MOL1         0.0832
      10    C4      19.941348   18.696793   24.054263 C.3        1 MOL1        -0.1761
      11    H7      19.432316   17.768496   23.764354 H          1 MOL1         0.0832
      12    H8      20.171355   18.581422   25.121394 H          1 MOL1         0.0832
      13    C5      18.952342   19.874002   23.893691 C.3        1 MOL1         0.1218
      14    H9      18.007507   19.561034   24.361065 H          1 MOL1         0.0789
      15    C6      18.627369   20.265160   22.430229 C.3        1 MOL1        -0.1761
      16    H10     18.223845   19.398283   21.891543 H          1 MOL1         0.0832
      17    H11     17.814433   21.001905   22.464424 H          1 MOL1         0.0832
      18    C7      19.806377   20.885172   21.635895 C.3        1 MOL1        -0.1685
      19    H12     19.399282   21.550125   20.862379 H          1 MOL1         0.0832
      20    H13     20.398920   21.534676   22.293661 H          1 MOL1         0.0832
      21    O1      19.445511   21.005437   24.604700 O.3        1 MOL1        -0.5509
      22    H14     19.649672   20.700478   25.512171 H          1 MOL1         0.3779
@<TRIPOS>BOND
    1     1     2    1
    2     1     3    1
    3     1     4    1
    4     4     5    1
    5     4     6    1
    6     4     7    1
    7     7     8    1
    8     7     9    1
    9     7    10    1
   10    10    11    1
   11    10    12    1
   12    10    13    1
   13    13    14    1
   14    13    15    1
   15    15    16    1
   16    15    17    1
   17     1    18    1
   18    15    18    1
   19    18    19    1
   20    18    20    1
   21    13    21    1
   22    21    22    1
@<TRIPOS>SUBSTRUCTURE
       1 MOL1            1 RESIDUE      1      MOL     
@<SCITEGIC>MOL_PROPERTY
VConf Rank
SciTegic.value.IntegerValue
549

@<SCITEGIC>MOL_PROPERTY
Conf_Id
SciTegic.value.IntegerValue
41

@<SCITEGIC>MOL_PROPERTY
Delta U+W
SciTegic.value.DoubleValue
-2.114

@<SCITEGIC>MOL_PROPERTY
U+W
SciTegic.value.DoubleValue
4.310

@<SCITEGIC>MOL_PROPERTY
Grad RMS
SciTegic.value.DoubleValue
0.000000

@<SCITEGIC>MOL_PROPERTY
U
SciTegic.value.DoubleValue
6.598

@<SCITEGIC>MOL_PROPERTY
W
SciTegic.value.DoubleValue
-2.289

@<SCITEGIC>MOL_PROPERTY
W(PB)
SciTegic.value.DoubleValue
-4.294

@<SCITEGIC>MOL_PROPERTY
W(SA)
SciTegic.value.DoubleValue
2.005

@<SCITEGIC>MOL_PROPERTY
Valence
SciTegic.value.DoubleValue
12.082

@<SCITEGIC>MOL_PROPERTY
Coulomb
SciTegic.value.DoubleValue
-7.801

@<SCITEGIC>MOL_PROPERTY
VdW
SciTegic.value.DoubleValue
2.317

@<SCITEGIC>MOL_PROPERTY
VdW6
SciTegic.value.DoubleValue
-9.658

@<SCITEGIC>MOL_PROPERTY
VdW12
SciTegic.value.DoubleValue
11.975

@<SCITEGIC>MOL_PROPERTY
Bond
SciTegic.value.DoubleValue
0.267

@<SCITEGIC>MOL_PROPERTY
Angle
SciTegic.value.DoubleValue
3.051

@<SCITEGIC>MOL_PROPERTY
Pdih
SciTegic.value.DoubleValue
8.764

@<SCITEGIC>MOL_PROPERTY
Idih
SciTegic.value.DoubleValue
0.000

@<SCITEGIC>MOL_PROPERTY
Tether
SciTegic.value.DoubleValue
0.000

@<TRIPOS>MOLECULE
guest-5_confgen4.mol2 : confsearch ligand conformer 550
          22          22           1
SMALL
USER_CHARGES
 
@<TRIPOS>ATOM
       1    C1      19.701030   20.042134   21.174215 C.3        1 MOL1        -0.1685
       2    H1      19.532908   20.605548   20.246396 H          1 MOL1         0.0832
       3    H2      19.724128   18.980992   20.890279 H          1 MOL1         0.0832
       4    C2      18.516009   20.328118   22.123597 C.3        1 MOL1        -0.1685
       5    H3      18.547265   21.378198   22.444435 H          1 MOL1         0.0832
       6    H4      17.579851   20.213015   21.560641 H          1 MOL1         0.0832
       7    C3      18.449452   19.411795   23.365025 C.3        1 MOL1        -0.1685
       8    H5      18.205692   18.388152   23.050975 H          1 MOL1         0.0832
       9    H6      17.602287   19.739459   23.982336 H          1 MOL1         0.0832
      10    C4      19.725269   19.406133   24.250149 C.3        1 MOL1        -0.1761
      11    H7      20.014541   20.434649   24.500622 H          1 MOL1         0.0832
      12    H8      19.465127   18.930767   25.204579 H          1 MOL1         0.0832
      13    C5      20.945916   18.641050   23.676823 C.3        1 MOL1         0.1218
      14    H9      21.626495   18.455709   24.520469 H          1 MOL1         0.0789
      15    C6      21.778595   19.397782   22.609517 C.3        1 MOL1        -0.1761
      16    H10     22.621481   19.882745   23.118846 H          1 MOL1         0.0832
      17    H11     22.235182   18.667743   21.928311 H          1 MOL1         0.0832
      18    C7      21.059056   20.479480   21.766255 C.3        1 MOL1        -0.1685
      19    H12     20.927705   21.391850   22.363535 H          1 MOL1         0.0832
      20    H13     21.727322   20.761500   20.941292 H          1 MOL1         0.0832
      21    O1      20.543302   17.374733   23.161786 O.3        1 MOL1        -0.5509
      22    H14     21.355276   16.924078   22.852724 H          1 MOL1         0.3779
@<TRIPOS>BOND
    1     1     2    1
    2     1     3    1
    3     1     4    1
    4     4     5    1
    5     4     6    1
    6     4     7    1
    7     7     8    1
    8     7     9    1
    9     7    10    1
   10    10    11    1
   11    10    12    1
   12    10    13    1
   13    13    14    1
   14    13    15    1
   15    15    16    1
   16    15    17    1
   17     1    18    1
   18    15    18    1
   19    18    19    1
   20    18    20    1
   21    13    21    1
   22    21    22    1
@<TRIPOS>SUBSTRUCTURE
       1 MOL1            1 RESIDUE      1      MOL     
@<SCITEGIC>MOL_PROPERTY
VConf Rank
SciTegic.value.IntegerValue
550

@<SCITEGIC>MOL_PROPERTY
Conf_Id
SciTegic.value.IntegerValue
104

@<SCITEGIC>MOL_PROPERTY
Delta U+W
SciTegic.value.DoubleValue
-1.172

@<SCITEGIC>MOL_PROPERTY
U+W
SciTegic.value.DoubleValue
5.252

@<SCITEGIC>MOL_PROPERTY
Grad RMS
SciTegic.value.DoubleValue
0.000000

@<SCITEGIC>MOL_PROPERTY
U
SciTegic.value.DoubleValue
7.482

@<SCITEGIC>MOL_PROPERTY
W
SciTegic.value.DoubleValue
-2.230

@<SCITEGIC>MOL_PROPERTY
W(PB)
SciTegic.value.DoubleValue
-4.220

@<SCITEGIC>MOL_PROPERTY
W(SA)
SciTegic.value.DoubleValue
1.990

@<SCITEGIC>MOL_PROPERTY
Valence
SciTegic.value.DoubleValue
12.309

@<SCITEGIC>MOL_PROPERTY
Coulomb
SciTegic.value.DoubleValue
-7.084

@<SCITEGIC>MOL_PROPERTY
VdW
SciTegic.value.DoubleValue
2.258

@<SCITEGIC>MOL_PROPERTY
VdW6
SciTegic.value.DoubleValue
-9.770

@<SCITEGIC>MOL_PROPERTY
VdW12
SciTegic.value.DoubleValue
12.028

@<SCITEGIC>MOL_PROPERTY
Bond
SciTegic.value.DoubleValue
0.284

@<SCITEGIC>MOL_PROPERTY
Angle
SciTegic.value.DoubleValue
3.491

@<SCITEGIC>MOL_PROPERTY
Pdih
SciTegic.value.DoubleValue
8.535

@<SCITEGIC>MOL_PROPERTY
Idih
SciTegic.value.DoubleValue
0.000

@<SCITEGIC>MOL_PROPERTY
Tether
SciTegic.value.DoubleValue
0.000

@<TRIPOS>MOLECULE
guest-5_confgen4.mol2 : confsearch ligand conformer 551
          22          22           1
SMALL
USER_CHARGES
 
@<TRIPOS>ATOM
       1    C1      20.727403   19.392818   24.161462 C.3        1 MOL1        -0.1685
       2    H1      21.114774   20.420156   24.193170 H          1 MOL1         0.0832
       3    H2      21.048171   18.919868   25.099739 H          1 MOL1         0.0832
       4    C2      21.357796   18.600810   22.993210 C.3        1 MOL1        -0.1685
       5    H3      22.361553   18.271064   23.294852 H          1 MOL1         0.0832
       6    H4      20.790574   17.674386   22.834041 H          1 MOL1         0.0832
       7    C3      21.496538   19.372460   21.656430 C.3        1 MOL1        -0.1685
       8    H5      21.512174   18.643737   20.834217 H          1 MOL1         0.0832
       9    H6      22.482652   19.856259   21.635323 H          1 MOL1         0.0832
      10    C4      20.434077   20.462815   21.350644 C.3        1 MOL1        -0.1761
      11    H7      20.679844   21.371618   21.915118 H          1 MOL1         0.0832
      12    H8      20.532419   20.744904   20.294350 H          1 MOL1         0.0832
      13    C5      18.954995   20.098962   21.615048 C.3        1 MOL1         0.1218
      14    H9      18.338099   20.773022   21.003523 H          1 MOL1         0.0789
      15    C6      18.535923   20.321129   23.085861 C.3        1 MOL1        -0.1761
      16    H10     18.749710   21.362684   23.358842 H          1 MOL1         0.0832
      17    H11     17.444953   20.216813   23.150247 H          1 MOL1         0.0832
      18    C7      19.180350   19.384338   24.137493 C.3        1 MOL1        -0.1685
      19    H12     18.818448   19.691535   25.128133 H          1 MOL1         0.0832
      20    H13     18.815478   18.358101   23.995421 H          1 MOL1         0.0832
      21    O1      18.694688   18.758220   21.229276 O.3        1 MOL1        -0.5509
      22    H14     19.333090   18.231822   21.750461 H          1 MOL1         0.3779
@<TRIPOS>BOND
    1     1     2    1
    2     1     3    1
    3     1     4    1
    4     4     5    1
    5     4     6    1
    6     4     7    1
    7     7     8    1
    8     7     9    1
    9     7    10    1
   10    10    11    1
   11    10    12    1
   12    10    13    1
   13    13    14    1
   14    13    15    1
   15    15    16    1
   16    15    17    1
   17     1    18    1
   18    15    18    1
   19    18    19    1
   20    18    20    1
   21    13    21    1
   22    21    22    1
@<TRIPOS>SUBSTRUCTURE
       1 MOL1            1 RESIDUE      1      MOL     
@<SCITEGIC>MOL_PROPERTY
VConf Rank
SciTegic.value.IntegerValue
551

@<SCITEGIC>MOL_PROPERTY
Conf_Id
SciTegic.value.IntegerValue
99

@<SCITEGIC>MOL_PROPERTY
Delta U+W
SciTegic.value.DoubleValue
-3.852

@<SCITEGIC>MOL_PROPERTY
U+W
SciTegic.value.DoubleValue
2.572

@<SCITEGIC>MOL_PROPERTY
Grad RMS
SciTegic.value.DoubleValue
0.000000

@<SCITEGIC>MOL_PROPERTY
U
SciTegic.value.DoubleValue
3.922

@<SCITEGIC>MOL_PROPERTY
W
SciTegic.value.DoubleValue
-1.350

@<SCITEGIC>MOL_PROPERTY
W(PB)
SciTegic.value.DoubleValue
-3.345

@<SCITEGIC>MOL_PROPERTY
W(SA)
SciTegic.value.DoubleValue
1.995

@<SCITEGIC>MOL_PROPERTY
Valence
SciTegic.value.DoubleValue
12.571

@<SCITEGIC>MOL_PROPERTY
Coulomb
SciTegic.value.DoubleValue
-10.581

@<SCITEGIC>MOL_PROPERTY
VdW
SciTegic.value.DoubleValue
1.932

@<SCITEGIC>MOL_PROPERTY
VdW6
SciTegic.value.DoubleValue
-10.483

@<SCITEGIC>MOL_PROPERTY
VdW12
SciTegic.value.DoubleValue
12.415

@<SCITEGIC>MOL_PROPERTY
Bond
SciTegic.value.DoubleValue
0.268

@<SCITEGIC>MOL_PROPERTY
Angle
SciTegic.value.DoubleValue
3.728

@<SCITEGIC>MOL_PROPERTY
Pdih
SciTegic.value.DoubleValue
8.575

@<SCITEGIC>MOL_PROPERTY
Idih
SciTegic.value.DoubleValue
0.000

@<SCITEGIC>MOL_PROPERTY
Tether
SciTegic.value.DoubleValue
0.000

@<TRIPOS>MOLECULE
guest-5_confgen4.mol2 : confsearch ligand conformer 552
          22          22           1
SMALL
USER_CHARGES
 
@<TRIPOS>ATOM
       1    C1      19.360114   18.185853   23.215629 C.3        1 MOL1        -0.1685
       2    H1      19.059400   17.138018   23.078140 H          1 MOL1         0.0832
       3    H2      19.040606   18.440617   24.234975 H          1 MOL1         0.0832
       4    C2      18.580654   19.046262   22.178331 C.3        1 MOL1        -0.1685
       5    H3      17.942444   18.370860   21.591977 H          1 MOL1         0.0832
       6    H4      17.882353   19.719385   22.693438 H          1 MOL1         0.0832
       7    C3      19.446924   19.859838   21.183131 C.3        1 MOL1        -0.1685
       8    H5      18.790338   20.258142   20.397654 H          1 MOL1         0.0832
       9    H6      20.133187   19.187197   20.653823 H          1 MOL1         0.0832
      10    C4      20.241632   21.050725   21.787331 C.3        1 MOL1        -0.1761
      11    H7      21.078781   21.280365   21.115624 H          1 MOL1         0.0832
      12    H8      19.600184   21.941851   21.766484 H          1 MOL1         0.0832
      13    C5      20.793710   20.907054   23.227028 C.3        1 MOL1         0.1218
      14    H9      21.500875   21.734513   23.381958 H          1 MOL1         0.0789
      15    C6      21.558308   19.597280   23.540114 C.3        1 MOL1        -0.1761
      16    H10     22.551170   19.655221   23.075776 H          1 MOL1         0.0832
      17    H11     21.745030   19.573844   24.622049 H          1 MOL1         0.0832
      18    C7      20.906274   18.249083   23.125364 C.3        1 MOL1        -0.1685
      19    H12     21.229542   17.977395   22.112817 H          1 MOL1         0.0832
      20    H13     21.323301   17.462294   23.768618 H          1 MOL1         0.0832
      21    O1      19.738893   21.077342   24.160626 O.3        1 MOL1        -0.5509
      22    H14     19.142150   20.322765   23.983300 H          1 MOL1         0.3779
@<TRIPOS>BOND
    1     1     2    1
    2     1     3    1
    3     1     4    1
    4     4     5    1
    5     4     6    1
    6     4     7    1
    7     7     8    1
    8     7     9    1
    9     7    10    1
   10    10    11    1
   11    10    12    1
   12    10    13    1
   13    13    14    1
   14    13    15    1
   15    15    16    1
   16    15    17    1
   17     1    18    1
   18    15    18    1
   19    18    19    1
   20    18    20    1
   21    13    21    1
   22    21    22    1
@<TRIPOS>SUBSTRUCTURE
       1 MOL1            1 RESIDUE      1      MOL     
@<SCITEGIC>MOL_PROPERTY
VConf Rank
SciTegic.value.IntegerValue
552

@<SCITEGIC>MOL_PROPERTY
Conf_Id
SciTegic.value.IntegerValue
98

@<SCITEGIC>MOL_PROPERTY
Delta U+W
SciTegic.value.DoubleValue
0.930

@<SCITEGIC>MOL_PROPERTY
U+W
SciTegic.value.DoubleValue
7.353

@<SCITEGIC>MOL_PROPERTY
Grad RMS
SciTegic.value.DoubleValue
0.000000

@<SCITEGIC>MOL_PROPERTY
U
SciTegic.value.DoubleValue
8.455

@<SCITEGIC>MOL_PROPERTY
W
SciTegic.value.DoubleValue
-1.102

@<SCITEGIC>MOL_PROPERTY
W(PB)
SciTegic.value.DoubleValue
-3.101

@<SCITEGIC>MOL_PROPERTY
W(SA)
SciTegic.value.DoubleValue
2.000

@<SCITEGIC>MOL_PROPERTY
Valence
SciTegic.value.DoubleValue
15.601

@<SCITEGIC>MOL_PROPERTY
Coulomb
SciTegic.value.DoubleValue
-10.573

@<SCITEGIC>MOL_PROPERTY
VdW
SciTegic.value.DoubleValue
3.427

@<SCITEGIC>MOL_PROPERTY
VdW6
SciTegic.value.DoubleValue
-11.360

@<SCITEGIC>MOL_PROPERTY
VdW12
SciTegic.value.DoubleValue
14.787

@<SCITEGIC>MOL_PROPERTY
Bond
SciTegic.value.DoubleValue
0.471

@<SCITEGIC>MOL_PROPERTY
Angle
SciTegic.value.DoubleValue
5.445

@<SCITEGIC>MOL_PROPERTY
Pdih
SciTegic.value.DoubleValue
9.685

@<SCITEGIC>MOL_PROPERTY
Idih
SciTegic.value.DoubleValue
0.000

@<SCITEGIC>MOL_PROPERTY
Tether
SciTegic.value.DoubleValue
0.000

@<TRIPOS>MOLECULE
guest-5_confgen4.mol2 : confsearch ligand conformer 553
          22          22           1
SMALL
USER_CHARGES
 
@<TRIPOS>ATOM
       1    C1      21.008562   18.349988   23.407935 C.3        1 MOL1        -0.1685
       2    H1      20.291505   18.352308   24.238961 H          1 MOL1         0.0832
       3    H2      21.745987   17.579049   23.669793 H          1 MOL1         0.0832
       4    C2      21.731004   19.719290   23.335488 C.3        1 MOL1        -0.1685
       5    H3      22.239772   19.875934   24.296473 H          1 MOL1         0.0832
       6    H4      22.527931   19.675094   22.580784 H          1 MOL1         0.0832
       7    C3      20.832189   20.955933   23.057116 C.3        1 MOL1        -0.1685
       8    H5      20.941610   21.273099   22.011914 H          1 MOL1         0.0832
       9    H6      21.215113   21.797951   23.649576 H          1 MOL1         0.0832
      10    C4      19.327790   20.761738   23.383894 C.3        1 MOL1        -0.1761
      11    H7      19.228037   20.383786   24.408993 H          1 MOL1         0.0832
      12    H8      18.848042   21.749649   23.400062 H          1 MOL1         0.0832
      13    C5      18.536239   19.832845   22.417211 C.3        1 MOL1         0.1218
      14    H9      17.929390   19.147800   23.026732 H          1 MOL1         0.0789
      15    C6      19.390764   18.984155   21.442649 C.3        1 MOL1        -0.1761
      16    H10     18.722756   18.470746   20.738921 H          1 MOL1         0.0832
      17    H11     20.006746   19.644746   20.820737 H          1 MOL1         0.0832
      18    C7      20.291528   17.914084   22.108516 C.3        1 MOL1        -0.1685
      19    H12     19.682829   17.028079   22.335001 H          1 MOL1         0.0832
      20    H13     21.041290   17.585332   21.376089 H          1 MOL1         0.0832
      21    O1      17.665783   20.638115   21.630432 O.3        1 MOL1        -0.5509
      22    H14     17.140386   20.026081   21.074059 H          1 MOL1         0.3779
@<TRIPOS>BOND
    1     1     2    1
    2     1     3    1
    3     1     4    1
    4     4     5    1
    5     4     6    1
    6     4     7    1
    7     7     8    1
    8     7     9    1
    9     7    10    1
   10    10    11    1
   11    10    12    1
   12    10    13    1
   13    13    14    1
   14    13    15    1
   15    15    16    1
   16    15    17    1
   17     1    18    1
   18    15    18    1
   19    18    19    1
   20    18    20    1
   21    13    21    1
   22    21    22    1
@<TRIPOS>SUBSTRUCTURE
       1 MOL1            1 RESIDUE      1      MOL     
@<SCITEGIC>MOL_PROPERTY
VConf Rank
SciTegic.value.IntegerValue
553

@<SCITEGIC>MOL_PROPERTY
Conf_Id
SciTegic.value.IntegerValue
141

@<SCITEGIC>MOL_PROPERTY
Delta U+W
SciTegic.value.DoubleValue
0.000

@<SCITEGIC>MOL_PROPERTY
U+W
SciTegic.value.DoubleValue
6.423

@<SCITEGIC>MOL_PROPERTY
Grad RMS
SciTegic.value.DoubleValue
0.000000

@<SCITEGIC>MOL_PROPERTY
U
SciTegic.value.DoubleValue
8.781

@<SCITEGIC>MOL_PROPERTY
W
SciTegic.value.DoubleValue
-2.358

@<SCITEGIC>MOL_PROPERTY
W(PB)
SciTegic.value.DoubleValue
-4.373

@<SCITEGIC>MOL_PROPERTY
W(SA)
SciTegic.value.DoubleValue
2.015

@<SCITEGIC>MOL_PROPERTY
Valence
SciTegic.value.DoubleValue
13.328

@<SCITEGIC>MOL_PROPERTY
Coulomb
SciTegic.value.DoubleValue
-8.387

@<SCITEGIC>MOL_PROPERTY
VdW
SciTegic.value.DoubleValue
3.840

@<SCITEGIC>MOL_PROPERTY
VdW6
SciTegic.value.DoubleValue
-9.744

@<SCITEGIC>MOL_PROPERTY
VdW12
SciTegic.value.DoubleValue
13.584

@<SCITEGIC>MOL_PROPERTY
Bond
SciTegic.value.DoubleValue
0.436

@<SCITEGIC>MOL_PROPERTY
Angle
SciTegic.value.DoubleValue
3.478

@<SCITEGIC>MOL_PROPERTY
Pdih
SciTegic.value.DoubleValue
9.415

@<SCITEGIC>MOL_PROPERTY
Idih
SciTegic.value.DoubleValue
0.000

@<SCITEGIC>MOL_PROPERTY
Tether
SciTegic.value.DoubleValue
0.000

@<TRIPOS>MOLECULE
guest-5_confgen4.mol2 : confsearch ligand conformer 554
          22          22           1
SMALL
USER_CHARGES
 
@<TRIPOS>ATOM
       1    C1      18.299381   20.053145   22.811091 C.3        1 MOL1        -0.1685
       2    H1      18.536124   20.531540   23.771143 H          1 MOL1         0.0832
       3    H2      17.232617   20.244504   22.631362 H          1 MOL1         0.0832
       4    C2      18.494000   18.519868   22.893779 C.3        1 MOL1        -0.1685
       5    H3      17.722231   18.104403   23.556060 H          1 MOL1         0.0832
       6    H4      18.310155   18.075672   21.905968 H          1 MOL1         0.0832
       7    C3      19.874872   18.057595   23.413228 C.3        1 MOL1        -0.1685
       8    H5      19.910908   16.960894   23.360561 H          1 MOL1         0.0832
       9    H6      19.966952   18.309513   24.478601 H          1 MOL1         0.0832
      10    C4      21.089033   18.629563   22.641318 C.3        1 MOL1        -0.1761
      11    H7      21.975480   18.058040   22.946371 H          1 MOL1         0.0832
      12    H8      20.975027   18.463524   21.562230 H          1 MOL1         0.0832
      13    C5      21.331637   20.126891   22.935902 C.3        1 MOL1         0.1218
      14    H9      21.033248   20.325924   23.975226 H          1 MOL1         0.0789
      15    C6      20.556367   21.096226   22.014684 C.3        1 MOL1        -0.1761
      16    H10     20.544437   22.079114   22.503191 H          1 MOL1         0.0832
      17    H11     21.114382   21.232393   21.078635 H          1 MOL1         0.0832
      18    C7      19.101677   20.700333   21.658046 C.3        1 MOL1        -0.1685
      19    H12     18.576537   21.604741   21.321744 H          1 MOL1         0.0832
      20    H13     19.106634   20.024279   20.792231 H          1 MOL1         0.0832
      21    O1      22.720156   20.402328   22.796733 O.3        1 MOL1        -0.5509
      22    H14     23.187205   19.832017   23.442666 H          1 MOL1         0.3779
@<TRIPOS>BOND
    1     1     2    1
    2     1     3    1
    3     1     4    1
    4     4     5    1
    5     4     6    1
    6     4     7    1
    7     7     8    1
    8     7     9    1
    9     7    10    1
   10    10    11    1
   11    10    12    1
   12    10    13    1
   13    13    14    1
   14    13    15    1
   15    15    16    1
   16    15    17    1
   17     1    18    1
   18    15    18    1
   19    18    19    1
   20    18    20    1
   21    13    21    1
   22    21    22    1
@<TRIPOS>SUBSTRUCTURE
       1 MOL1            1 RESIDUE      1      MOL     
@<SCITEGIC>MOL_PROPERTY
VConf Rank
SciTegic.value.IntegerValue
554

@<SCITEGIC>MOL_PROPERTY
Conf_Id
SciTegic.value.IntegerValue
144

@<SCITEGIC>MOL_PROPERTY
Delta U+W
SciTegic.value.DoubleValue
-3.291

@<SCITEGIC>MOL_PROPERTY
U+W
SciTegic.value.DoubleValue
3.132

@<SCITEGIC>MOL_PROPERTY
Grad RMS
SciTegic.value.DoubleValue
0.000000

@<SCITEGIC>MOL_PROPERTY
U
SciTegic.value.DoubleValue
5.411

@<SCITEGIC>MOL_PROPERTY
W
SciTegic.value.DoubleValue
-2.279

@<SCITEGIC>MOL_PROPERTY
W(PB)
SciTegic.value.DoubleValue
-4.300

@<SCITEGIC>MOL_PROPERTY
W(SA)
SciTegic.value.DoubleValue
2.021

@<SCITEGIC>MOL_PROPERTY
Valence
SciTegic.value.DoubleValue
11.909

@<SCITEGIC>MOL_PROPERTY
Coulomb
SciTegic.value.DoubleValue
-8.733

@<SCITEGIC>MOL_PROPERTY
VdW
SciTegic.value.DoubleValue
2.236

@<SCITEGIC>MOL_PROPERTY
VdW6
SciTegic.value.DoubleValue
-8.936

@<SCITEGIC>MOL_PROPERTY
VdW12
SciTegic.value.DoubleValue
11.172

@<SCITEGIC>MOL_PROPERTY
Bond
SciTegic.value.DoubleValue
0.223

@<SCITEGIC>MOL_PROPERTY
Angle
SciTegic.value.DoubleValue
2.457

@<SCITEGIC>MOL_PROPERTY
Pdih
SciTegic.value.DoubleValue
9.228

@<SCITEGIC>MOL_PROPERTY
Idih
SciTegic.value.DoubleValue
0.000

@<SCITEGIC>MOL_PROPERTY
Tether
SciTegic.value.DoubleValue
0.000

@<TRIPOS>MOLECULE
guest-5_confgen4.mol2 : confsearch ligand conformer 555
          22          22           1
SMALL
USER_CHARGES
 
@<TRIPOS>ATOM
       1    C1      20.683886   19.157632   21.139020 C.3        1 MOL1        -0.1685
       2    H1      21.067994   19.180867   20.110034 H          1 MOL1         0.0832
       3    H2      20.956711   18.173260   21.543076 H          1 MOL1         0.0832
       4    C2      19.147196   19.322408   21.079801 C.3        1 MOL1        -0.1685
       5    H3      18.896923   20.388504   20.992748 H          1 MOL1         0.0832
       6    H4      18.775339   18.858040   20.156177 H          1 MOL1         0.0832
       7    C3      18.374315   18.702950   22.269275 C.3        1 MOL1        -0.1685
       8    H5      18.221787   17.632022   22.077535 H          1 MOL1         0.0832
       9    H6      17.369909   19.147469   22.293553 H          1 MOL1         0.0832
      10    C4      19.026490   18.854588   23.665633 C.3        1 MOL1        -0.1761
      11    H7      18.247438   18.682624   24.420601 H          1 MOL1         0.0832
      12    H8      19.762018   18.052494   23.808946 H          1 MOL1         0.0832
      13    C5      19.702528   20.219782   23.924114 C.3        1 MOL1         0.1218
      14    H9      19.139122   21.012572   23.411741 H          1 MOL1         0.0789
      15    C6      21.176577   20.248357   23.460067 C.3        1 MOL1        -0.1761
      16    H10     21.664381   21.132112   23.892681 H          1 MOL1         0.0832
      17    H11     21.706481   19.378536   23.869577 H          1 MOL1         0.0832
      18    C7      21.381948   20.291852   21.927211 C.3        1 MOL1        -0.1685
      19    H12     21.045389   21.264226   21.542317 H          1 MOL1         0.0832
      20    H13     22.460627   20.246924   21.724183 H          1 MOL1         0.0832
      21    O1      19.680530   20.471539   25.322809 O.3        1 MOL1        -0.5509
      22    H14     20.188481   19.746868   25.742329 H          1 MOL1         0.3779
@<TRIPOS>BOND
    1     1     2    1
    2     1     3    1
    3     1     4    1
    4     4     5    1
    5     4     6    1
    6     4     7    1
    7     7     8    1
    8     7     9    1
    9     7    10    1
   10    10    11    1
   11    10    12    1
   12    10    13    1
   13    13    14    1
   14    13    15    1
   15    15    16    1
   16    15    17    1
   17     1    18    1
   18    15    18    1
   19    18    19    1
   20    18    20    1
   21    13    21    1
   22    21    22    1
@<TRIPOS>SUBSTRUCTURE
       1 MOL1            1 RESIDUE      1      MOL     
@<SCITEGIC>MOL_PROPERTY
VConf Rank
SciTegic.value.IntegerValue
555

@<SCITEGIC>MOL_PROPERTY
Conf_Id
SciTegic.value.IntegerValue
76

@<SCITEGIC>MOL_PROPERTY
Delta U+W
SciTegic.value.DoubleValue
-3.175

@<SCITEGIC>MOL_PROPERTY
U+W
SciTegic.value.DoubleValue
3.248

@<SCITEGIC>MOL_PROPERTY
Grad RMS
SciTegic.value.DoubleValue
0.000000

@<SCITEGIC>MOL_PROPERTY
U
SciTegic.value.DoubleValue
5.336

@<SCITEGIC>MOL_PROPERTY
W
SciTegic.value.DoubleValue
-2.088

@<SCITEGIC>MOL_PROPERTY
W(PB)
SciTegic.value.DoubleValue
-4.098

@<SCITEGIC>MOL_PROPERTY
W(SA)
SciTegic.value.DoubleValue
2.010

@<SCITEGIC>MOL_PROPERTY
Valence
SciTegic.value.DoubleValue
12.390

@<SCITEGIC>MOL_PROPERTY
Coulomb
SciTegic.value.DoubleValue
-9.270

@<SCITEGIC>MOL_PROPERTY
VdW
SciTegic.value.DoubleValue
2.216

@<SCITEGIC>MOL_PROPERTY
VdW6
SciTegic.value.DoubleValue
-8.967

@<SCITEGIC>MOL_PROPERTY
VdW12
SciTegic.value.DoubleValue
11.183

@<SCITEGIC>MOL_PROPERTY
Bond
SciTegic.value.DoubleValue
0.218

@<SCITEGIC>MOL_PROPERTY
Angle
SciTegic.value.DoubleValue
2.426

@<SCITEGIC>MOL_PROPERTY
Pdih
SciTegic.value.DoubleValue
9.745

@<SCITEGIC>MOL_PROPERTY
Idih
SciTegic.value.DoubleValue
0.000

@<SCITEGIC>MOL_PROPERTY
Tether
SciTegic.value.DoubleValue
0.000

@<TRIPOS>MOLECULE
guest-5_confgen4.mol2 : confsearch ligand conformer 556
          22          22           1
SMALL
USER_CHARGES
 
@<TRIPOS>ATOM
       1    C1      20.059167   17.702543   22.963091 C.3        1 MOL1        -0.1685
       2    H1      20.583199   16.940246   22.370575 H          1 MOL1         0.0832
       3    H2      19.594770   17.162688   23.799576 H          1 MOL1         0.0832
       4    C2      18.944902   18.317974   22.083130 C.3        1 MOL1        -0.1685
       5    H3      19.296132   18.391330   21.044989 H          1 MOL1         0.0832
       6    H4      18.103033   17.612664   22.059056 H          1 MOL1         0.0832
       7    C3      18.429745   19.699096   22.550736 C.3        1 MOL1        -0.1685
       8    H5      18.391043   19.754161   23.647233 H          1 MOL1         0.0832
       9    H6      17.394007   19.812266   22.203274 H          1 MOL1         0.0832
      10    C4      19.253941   20.875480   21.968584 C.3        1 MOL1        -0.1761
      11    H7      19.336157   20.754888   20.880829 H          1 MOL1         0.0832
      12    H8      18.691427   21.806066   22.120249 H          1 MOL1         0.0832
      13    C5      20.669931   21.073854   22.555712 C.3        1 MOL1         0.1218
      14    H9      21.175944   21.814471   21.919682 H          1 MOL1         0.0789
      15    C6      21.559441   19.805425   22.574319 C.3        1 MOL1        -0.1761
      16    H10     21.652637   19.401441   21.557958 H          1 MOL1         0.0832
      17    H11     22.571932   20.115344   22.863456 H          1 MOL1         0.0832
      18    C7      21.096810   18.690288   23.547797 C.3        1 MOL1        -0.1685
      19    H12     21.974325   18.109767   23.863054 H          1 MOL1         0.0832
      20    H13     20.697098   19.135686   24.468281 H          1 MOL1         0.0832
      21    O1      20.562602   21.615900   23.868225 O.3        1 MOL1        -0.5509
      22    H14     21.473977   21.676231   24.220418 H          1 MOL1         0.3779
@<TRIPOS>BOND
    1     1     2    1
    2     1     3    1
    3     1     4    1
    4     4     5    1
    5     4     6    1
    6     4     7    1
    7     7     8    1
    8     7     9    1
    9     7    10    1
   10    10    11    1
   11    10    12    1
   12    10    13    1
   13    13    14    1
   14    13    15    1
   15    15    16    1
   16    15    17    1
   17     1    18    1
   18    15    18    1
   19    18    19    1
   20    18    20    1
   21    13    21    1
   22    21    22    1
@<TRIPOS>SUBSTRUCTURE
       1 MOL1            1 RESIDUE      1      MOL     
@<SCITEGIC>MOL_PROPERTY
VConf Rank
SciTegic.value.IntegerValue
556

@<SCITEGIC>MOL_PROPERTY
Conf_Id
SciTegic.value.IntegerValue
95

@<SCITEGIC>MOL_PROPERTY
Delta U+W
SciTegic.value.DoubleValue
-2.289

@<SCITEGIC>MOL_PROPERTY
U+W
SciTegic.value.DoubleValue
4.134

@<SCITEGIC>MOL_PROPERTY
Grad RMS
SciTegic.value.DoubleValue
0.000000

@<SCITEGIC>MOL_PROPERTY
U
SciTegic.value.DoubleValue
6.373

@<SCITEGIC>MOL_PROPERTY
W
SciTegic.value.DoubleValue
-2.240

@<SCITEGIC>MOL_PROPERTY
W(PB)
SciTegic.value.DoubleValue
-4.254

@<SCITEGIC>MOL_PROPERTY
W(SA)
SciTegic.value.DoubleValue
2.015

@<SCITEGIC>MOL_PROPERTY
Valence
SciTegic.value.DoubleValue
12.093

@<SCITEGIC>MOL_PROPERTY
Coulomb
SciTegic.value.DoubleValue
-8.058

@<SCITEGIC>MOL_PROPERTY
VdW
SciTegic.value.DoubleValue
2.339

@<SCITEGIC>MOL_PROPERTY
VdW6
SciTegic.value.DoubleValue
-9.683

@<SCITEGIC>MOL_PROPERTY
VdW12
SciTegic.value.DoubleValue
12.022

@<SCITEGIC>MOL_PROPERTY
Bond
SciTegic.value.DoubleValue
0.268

@<SCITEGIC>MOL_PROPERTY
Angle
SciTegic.value.DoubleValue
3.005

@<SCITEGIC>MOL_PROPERTY
Pdih
SciTegic.value.DoubleValue
8.820

@<SCITEGIC>MOL_PROPERTY
Idih
SciTegic.value.DoubleValue
0.000

@<SCITEGIC>MOL_PROPERTY
Tether
SciTegic.value.DoubleValue
0.000

@<TRIPOS>MOLECULE
guest-5_confgen4.mol2 : confsearch ligand conformer 557
          22          22           1
SMALL
USER_CHARGES
 
@<TRIPOS>ATOM
       1    C1      20.244953   17.853925   22.025955 C.3        1 MOL1        -0.1685
       2    H1      21.127605   17.410034   21.545704 H          1 MOL1         0.0832
       3    H2      19.497044   17.050807   22.075177 H          1 MOL1         0.0832
       4    C2      19.710652   18.980543   21.109668 C.3        1 MOL1        -0.1685
       5    H3      20.555245   19.494045   20.630650 H          1 MOL1         0.0832
       6    H4      19.148467   18.513079   20.289774 H          1 MOL1         0.0832
       7    C3      18.805648   20.020887   21.809788 C.3        1 MOL1        -0.1685
       8    H5      18.162065   19.540914   22.559619 H          1 MOL1         0.0832
       9    H6      18.130030   20.446496   21.055584 H          1 MOL1         0.0832
      10    C4      19.610372   21.188103   22.435354 C.3        1 MOL1        -0.1761
      11    H7      20.304018   21.588653   21.684814 H          1 MOL1         0.0832
      12    H8      18.918727   22.010271   22.660412 H          1 MOL1         0.0832
      13    C5      20.407024   20.856868   23.718072 C.3        1 MOL1         0.1218
      14    H9      21.048269   21.725382   23.926851 H          1 MOL1         0.0789
      15    C6      21.335699   19.621045   23.614920 C.3        1 MOL1        -0.1761
      16    H10     22.047545   19.755146   22.790432 H          1 MOL1         0.0832
      17    H11     21.939828   19.592102   24.530900 H          1 MOL1         0.0832
      18    C7      20.607657   18.258790   23.474714 C.3        1 MOL1        -0.1685
      19    H12     21.248453   17.471771   23.894474 H          1 MOL1         0.0832
      20    H13     19.700813   18.254824   24.093776 H          1 MOL1         0.0832
      21    O1      19.503422   20.700416   24.807988 O.3        1 MOL1        -0.5509
      22    H14     18.932800   21.495714   24.816866 H          1 MOL1         0.3779
@<TRIPOS>BOND
    1     1     2    1
    2     1     3    1
    3     1     4    1
    4     4     5    1
    5     4     6    1
    6     4     7    1
    7     7     8    1
    8     7     9    1
    9     7    10    1
   10    10    11    1
   11    10    12    1
   12    10    13    1
   13    13    14    1
   14    13    15    1
   15    15    16    1
   16    15    17    1
   17     1    18    1
   18    15    18    1
   19    18    19    1
   20    18    20    1
   21    13    21    1
   22    21    22    1
@<TRIPOS>SUBSTRUCTURE
       1 MOL1            1 RESIDUE      1      MOL     
@<SCITEGIC>MOL_PROPERTY
VConf Rank
SciTegic.value.IntegerValue
557

@<SCITEGIC>MOL_PROPERTY
Conf_Id
SciTegic.value.IntegerValue
41

@<SCITEGIC>MOL_PROPERTY
Delta U+W
SciTegic.value.DoubleValue
-2.114

@<SCITEGIC>MOL_PROPERTY
U+W
SciTegic.value.DoubleValue
4.310

@<SCITEGIC>MOL_PROPERTY
Grad RMS
SciTegic.value.DoubleValue
0.000000

@<SCITEGIC>MOL_PROPERTY
U
SciTegic.value.DoubleValue
6.598

@<SCITEGIC>MOL_PROPERTY
W
SciTegic.value.DoubleValue
-2.289

@<SCITEGIC>MOL_PROPERTY
W(PB)
SciTegic.value.DoubleValue
-4.294

@<SCITEGIC>MOL_PROPERTY
W(SA)
SciTegic.value.DoubleValue
2.005

@<SCITEGIC>MOL_PROPERTY
Valence
SciTegic.value.DoubleValue
12.082

@<SCITEGIC>MOL_PROPERTY
Coulomb
SciTegic.value.DoubleValue
-7.801

@<SCITEGIC>MOL_PROPERTY
VdW
SciTegic.value.DoubleValue
2.317

@<SCITEGIC>MOL_PROPERTY
VdW6
SciTegic.value.DoubleValue
-9.658

@<SCITEGIC>MOL_PROPERTY
VdW12
SciTegic.value.DoubleValue
11.975

@<SCITEGIC>MOL_PROPERTY
Bond
SciTegic.value.DoubleValue
0.267

@<SCITEGIC>MOL_PROPERTY
Angle
SciTegic.value.DoubleValue
3.051

@<SCITEGIC>MOL_PROPERTY
Pdih
SciTegic.value.DoubleValue
8.764

@<SCITEGIC>MOL_PROPERTY
Idih
SciTegic.value.DoubleValue
0.000

@<SCITEGIC>MOL_PROPERTY
Tether
SciTegic.value.DoubleValue
0.000

@<TRIPOS>MOLECULE
guest-5_confgen4.mol2 : confsearch ligand conformer 558
          22          22           1
SMALL
USER_CHARGES
 
@<TRIPOS>ATOM
       1    C1      20.374307   19.229763   24.327010 C.3        1 MOL1        -0.1685
       2    H1      20.345338   19.165224   25.423160 H          1 MOL1         0.0832
       3    H2      21.032034   18.417601   23.987944 H          1 MOL1         0.0832
       4    C2      20.965996   20.606090   23.948838 C.3        1 MOL1        -0.1685
       5    H3      20.265193   21.400085   24.240438 H          1 MOL1         0.0832
       6    H4      21.874312   20.772812   24.543585 H          1 MOL1         0.0832
       7    C3      21.329958   20.762701   22.456114 C.3        1 MOL1        -0.1685
       8    H5      22.181400   20.111605   22.217344 H          1 MOL1         0.0832
       9    H6      21.691744   21.788104   22.301886 H          1 MOL1         0.0832
      10    C4      20.166062   20.500850   21.462150 C.3        1 MOL1        -0.1761
      11    H7      19.287537   21.093984   21.746129 H          1 MOL1         0.0832
      12    H8      20.475806   20.881517   20.480450 H          1 MOL1         0.0832
      13    C5      19.759167   19.017236   21.268863 C.3        1 MOL1         0.1218
      14    H9      19.177488   18.968676   20.336893 H          1 MOL1         0.0789
      15    C6      18.853558   18.414321   22.374080 C.3        1 MOL1        -0.1761
      16    H10     17.811070   18.497147   22.040282 H          1 MOL1         0.0832
      17    H11     19.047791   17.336166   22.447066 H          1 MOL1         0.0832
      18    C7      18.938809   19.030074   23.792699 C.3        1 MOL1        -0.1685
      19    H12     18.396486   19.984879   23.818122 H          1 MOL1         0.0832
      20    H13     18.397499   18.365807   24.480021 H          1 MOL1         0.0832
      21    O1      20.915252   18.201598   21.098210 O.3        1 MOL1        -0.5509
      22    H14     20.597080   17.289388   20.941524 H          1 MOL1         0.3779
@<TRIPOS>BOND
    1     1     2    1
    2     1     3    1
    3     1     4    1
    4     4     5    1
    5     4     6    1
    6     4     7    1
    7     7     8    1
    8     7     9    1
    9     7    10    1
   10    10    11    1
   11    10    12    1
   12    10    13    1
   13    13    14    1
   14    13    15    1
   15    15    16    1
   16    15    17    1
   17     1    18    1
   18    15    18    1
   19    18    19    1
   20    18    20    1
   21    13    21    1
   22    21    22    1
@<TRIPOS>SUBSTRUCTURE
       1 MOL1            1 RESIDUE      1      MOL     
@<SCITEGIC>MOL_PROPERTY
VConf Rank
SciTegic.value.IntegerValue
558

@<SCITEGIC>MOL_PROPERTY
Conf_Id
SciTegic.value.IntegerValue
104

@<SCITEGIC>MOL_PROPERTY
Delta U+W
SciTegic.value.DoubleValue
-1.172

@<SCITEGIC>MOL_PROPERTY
U+W
SciTegic.value.DoubleValue
5.252

@<SCITEGIC>MOL_PROPERTY
Grad RMS
SciTegic.value.DoubleValue
0.000000

@<SCITEGIC>MOL_PROPERTY
U
SciTegic.value.DoubleValue
7.482

@<SCITEGIC>MOL_PROPERTY
W
SciTegic.value.DoubleValue
-2.230

@<SCITEGIC>MOL_PROPERTY
W(PB)
SciTegic.value.DoubleValue
-4.220

@<SCITEGIC>MOL_PROPERTY
W(SA)
SciTegic.value.DoubleValue
1.990

@<SCITEGIC>MOL_PROPERTY
Valence
SciTegic.value.DoubleValue
12.309

@<SCITEGIC>MOL_PROPERTY
Coulomb
SciTegic.value.DoubleValue
-7.084

@<SCITEGIC>MOL_PROPERTY
VdW
SciTegic.value.DoubleValue
2.258

@<SCITEGIC>MOL_PROPERTY
VdW6
SciTegic.value.DoubleValue
-9.770

@<SCITEGIC>MOL_PROPERTY
VdW12
SciTegic.value.DoubleValue
12.028

@<SCITEGIC>MOL_PROPERTY
Bond
SciTegic.value.DoubleValue
0.284

@<SCITEGIC>MOL_PROPERTY
Angle
SciTegic.value.DoubleValue
3.491

@<SCITEGIC>MOL_PROPERTY
Pdih
SciTegic.value.DoubleValue
8.535

@<SCITEGIC>MOL_PROPERTY
Idih
SciTegic.value.DoubleValue
0.000

@<SCITEGIC>MOL_PROPERTY
Tether
SciTegic.value.DoubleValue
0.000

@<TRIPOS>MOLECULE
guest-5_confgen4.mol2 : confsearch ligand conformer 559
          22          22           1
SMALL
USER_CHARGES
 
@<TRIPOS>ATOM
       1    C1      21.540257   19.024703   23.126250 C.3        1 MOL1        -0.1685
       2    H1      21.749094   18.586707   22.140841 H          1 MOL1         0.0832
       3    H2      22.409673   18.785256   23.753721 H          1 MOL1         0.0832
       4    C2      20.297527   18.368477   23.770047 C.3        1 MOL1        -0.1685
       5    H3      20.595269   17.402970   24.201783 H          1 MOL1         0.0832
       6    H4      19.969327   18.972933   24.625765 H          1 MOL1         0.0832
       7    C3      19.104032   18.110623   22.815712 C.3        1 MOL1        -0.1685
       8    H5      18.181412   18.084424   23.411867 H          1 MOL1         0.0832
       9    H6      19.207469   17.101046   22.395018 H          1 MOL1         0.0832
      10    C4      18.916174   19.094635   21.629276 C.3        1 MOL1        -0.1761
      11    H7      19.625365   18.835563   20.832479 H          1 MOL1         0.0832
      12    H8      17.922155   18.919269   21.197798 H          1 MOL1         0.0832
      13    C5      19.046332   20.603781   21.938336 C.3        1 MOL1         0.1218
      14    H9      18.515300   21.147274   21.143665 H          1 MOL1         0.0789
      15    C6      20.510710   21.097067   21.915218 C.3        1 MOL1        -0.1761
      16    H10     20.951044   20.845665   20.941583 H          1 MOL1         0.0832
      17    H11     20.503022   22.193896   21.961620 H          1 MOL1         0.0832
      18    C7      21.437043   20.565942   23.037093 C.3        1 MOL1        -0.1685
      19    H12     22.443546   20.969342   22.861219 H          1 MOL1         0.0832
      20    H13     21.120604   20.974912   24.006158 H          1 MOL1         0.0832
      21    O1      18.446341   20.910520   23.187373 O.3        1 MOL1        -0.5509
      22    H14     18.912014   20.332515   23.824039 H          1 MOL1         0.3779
@<TRIPOS>BOND
    1     1     2    1
    2     1     3    1
    3     1     4    1
    4     4     5    1
    5     4     6    1
    6     4     7    1
    7     7     8    1
    8     7     9    1
    9     7    10    1
   10    10    11    1
   11    10    12    1
   12    10    13    1
   13    13    14    1
   14    13    15    1
   15    15    16    1
   16    15    17    1
   17     1    18    1
   18    15    18    1
   19    18    19    1
   20    18    20    1
   21    13    21    1
   22    21    22    1
@<TRIPOS>SUBSTRUCTURE
       1 MOL1            1 RESIDUE      1      MOL     
@<SCITEGIC>MOL_PROPERTY
VConf Rank
SciTegic.value.IntegerValue
559

@<SCITEGIC>MOL_PROPERTY
Conf_Id
SciTegic.value.IntegerValue
99

@<SCITEGIC>MOL_PROPERTY
Delta U+W
SciTegic.value.DoubleValue
-3.852

@<SCITEGIC>MOL_PROPERTY
U+W
SciTegic.value.DoubleValue
2.572

@<SCITEGIC>MOL_PROPERTY
Grad RMS
SciTegic.value.DoubleValue
0.000000

@<SCITEGIC>MOL_PROPERTY
U
SciTegic.value.DoubleValue
3.922

@<SCITEGIC>MOL_PROPERTY
W
SciTegic.value.DoubleValue
-1.350

@<SCITEGIC>MOL_PROPERTY
W(PB)
SciTegic.value.DoubleValue
-3.345

@<SCITEGIC>MOL_PROPERTY
W(SA)
SciTegic.value.DoubleValue
1.995

@<SCITEGIC>MOL_PROPERTY
Valence
SciTegic.value.DoubleValue
12.571

@<SCITEGIC>MOL_PROPERTY
Coulomb
SciTegic.value.DoubleValue
-10.581

@<SCITEGIC>MOL_PROPERTY
VdW
SciTegic.value.DoubleValue
1.932

@<SCITEGIC>MOL_PROPERTY
VdW6
SciTegic.value.DoubleValue
-10.483

@<SCITEGIC>MOL_PROPERTY
VdW12
SciTegic.value.DoubleValue
12.415

@<SCITEGIC>MOL_PROPERTY
Bond
SciTegic.value.DoubleValue
0.268

@<SCITEGIC>MOL_PROPERTY
Angle
SciTegic.value.DoubleValue
3.728

@<SCITEGIC>MOL_PROPERTY
Pdih
SciTegic.value.DoubleValue
8.575

@<SCITEGIC>MOL_PROPERTY
Idih
SciTegic.value.DoubleValue
0.000

@<SCITEGIC>MOL_PROPERTY
Tether
SciTegic.value.DoubleValue
0.000

@<TRIPOS>MOLECULE
guest-5_confgen4.mol2 : confsearch ligand conformer 560
          22          22           1
SMALL
USER_CHARGES
 
@<TRIPOS>ATOM
       1    C1      21.623933   20.125876   22.985969 C.3        1 MOL1        -0.1685
       2    H1      22.715035   19.998629   22.961560 H          1 MOL1         0.0832
       3    H2      21.464535   21.118554   23.427825 H          1 MOL1         0.0832
       4    C2      21.035491   19.024204   23.915434 C.3        1 MOL1        -0.1685
       5    H3      21.871911   18.420223   24.293455 H          1 MOL1         0.0832
       6    H4      20.589913   19.481355   24.809037 H          1 MOL1         0.0832
       7    C3      20.013657   18.059069   23.261889 C.3        1 MOL1        -0.1685
       8    H5      19.829643   17.227616   23.955827 H          1 MOL1         0.0832
       9    H6      20.462386   17.587050   22.379048 H          1 MOL1         0.0832
      10    C4      18.638391   18.676439   22.884624 C.3        1 MOL1        -0.1761
      11    H7      18.181105   18.047579   22.109919 H          1 MOL1         0.0832
      12    H8      17.972114   18.596278   23.753903 H          1 MOL1         0.0832
      13    C5      18.603709   20.148348   22.404585 C.3        1 MOL1         0.1218
      14    H9      17.605319   20.321730   21.978052 H          1 MOL1         0.0789
      15    C6      19.632419   20.537962   21.314584 C.3        1 MOL1        -0.1761
      16    H10     19.292508   20.129326   20.354261 H          1 MOL1         0.0832
      17    H11     19.591719   21.628987   21.196243 H          1 MOL1         0.0832
      18    C7      21.115224   20.121821   21.521744 C.3        1 MOL1        -0.1685
      19    H12     21.289668   19.136577   21.071820 H          1 MOL1         0.0832
      20    H13     21.741702   20.807765   20.935458 H          1 MOL1         0.0832
      21    O1      18.739358   21.015934   23.519096 O.3        1 MOL1        -0.5509
      22    H14     19.636131   20.824580   23.859854 H          1 MOL1         0.3779
@<TRIPOS>BOND
    1     1     2    1
    2     1     3    1
    3     1     4    1
    4     4     5    1
    5     4     6    1
    6     4     7    1
    7     7     8    1
    8     7     9    1
    9     7    10    1
   10    10    11    1
   11    10    12    1
   12    10    13    1
   13    13    14    1
   14    13    15    1
   15    15    16    1
   16    15    17    1
   17     1    18    1
   18    15    18    1
   19    18    19    1
   20    18    20    1
   21    13    21    1
   22    21    22    1
@<TRIPOS>SUBSTRUCTURE
       1 MOL1            1 RESIDUE      1      MOL     
@<SCITEGIC>MOL_PROPERTY
VConf Rank
SciTegic.value.IntegerValue
560

@<SCITEGIC>MOL_PROPERTY
Conf_Id
SciTegic.value.IntegerValue
98

@<SCITEGIC>MOL_PROPERTY
Delta U+W
SciTegic.value.DoubleValue
0.930

@<SCITEGIC>MOL_PROPERTY
U+W
SciTegic.value.DoubleValue
7.353

@<SCITEGIC>MOL_PROPERTY
Grad RMS
SciTegic.value.DoubleValue
0.000000

@<SCITEGIC>MOL_PROPERTY
U
SciTegic.value.DoubleValue
8.455

@<SCITEGIC>MOL_PROPERTY
W
SciTegic.value.DoubleValue
-1.102

@<SCITEGIC>MOL_PROPERTY
W(PB)
SciTegic.value.DoubleValue
-3.101

@<SCITEGIC>MOL_PROPERTY
W(SA)
SciTegic.value.DoubleValue
2.000

@<SCITEGIC>MOL_PROPERTY
Valence
SciTegic.value.DoubleValue
15.601

@<SCITEGIC>MOL_PROPERTY
Coulomb
SciTegic.value.DoubleValue
-10.573

@<SCITEGIC>MOL_PROPERTY
VdW
SciTegic.value.DoubleValue
3.427

@<SCITEGIC>MOL_PROPERTY
VdW6
SciTegic.value.DoubleValue
-11.360

@<SCITEGIC>MOL_PROPERTY
VdW12
SciTegic.value.DoubleValue
14.787

@<SCITEGIC>MOL_PROPERTY
Bond
SciTegic.value.DoubleValue
0.471

@<SCITEGIC>MOL_PROPERTY
Angle
SciTegic.value.DoubleValue
5.445

@<SCITEGIC>MOL_PROPERTY
Pdih
SciTegic.value.DoubleValue
9.685

@<SCITEGIC>MOL_PROPERTY
Idih
SciTegic.value.DoubleValue
0.000

@<SCITEGIC>MOL_PROPERTY
Tether
SciTegic.value.DoubleValue
0.000

@<TRIPOS>MOLECULE
guest-5_confgen4.mol2 : confsearch ligand conformer 561
          22          22           1
SMALL
USER_CHARGES
 
@<TRIPOS>ATOM
       1    C1      18.913158   19.825994   23.940889 C.3        1 MOL1        -0.1685
       2    H1      19.749326   19.647476   24.629173 H          1 MOL1         0.0832
       3    H2      18.066332   20.098067   24.585540 H          1 MOL1         0.0832
       4    C2      18.561913   18.515214   23.192129 C.3        1 MOL1        -0.1685
       5    H3      18.298213   17.763065   23.948178 H          1 MOL1         0.0832
       6    H4      17.653552   18.666001   22.593158 H          1 MOL1         0.0832
       7    C3      19.677135   17.921171   22.287675 C.3        1 MOL1        -0.1685
       8    H5      19.458824   18.132793   21.232890 H          1 MOL1         0.0832
       9    H6      19.638217   16.826503   22.370270 H          1 MOL1         0.0832
      10    C4      21.116476   18.394059   22.622912 C.3        1 MOL1        -0.1761
      11    H7      21.306417   18.238796   23.692231 H          1 MOL1         0.0832
      12    H8      21.825769   17.729423   22.111493 H          1 MOL1         0.0832
      13    C5      21.451282   19.868834   22.253029 C.3        1 MOL1         0.1218
      14    H9      21.966893   20.324544   23.110666 H          1 MOL1         0.0789
      15    C6      20.242843   20.765289   21.883839 C.3        1 MOL1        -0.1761
      16    H10     20.615032   21.734643   21.527631 H          1 MOL1         0.0832
      17    H11     19.710038   20.332688   21.028523 H          1 MOL1         0.0832
      18    C7      19.240402   21.035303   23.033627 C.3        1 MOL1        -0.1685
      19    H12     19.635234   21.840959   23.667536 H          1 MOL1         0.0832
      20    H13     18.308664   21.422682   22.599493 H          1 MOL1         0.0832
      21    O1      22.335121   19.864159   21.137689 O.3        1 MOL1        -0.5509
      22    H14     22.574413   20.798141   20.962768 H          1 MOL1         0.3779
@<TRIPOS>BOND
    1     1     2    1
    2     1     3    1
    3     1     4    1
    4     4     5    1
    5     4     6    1
    6     4     7    1
    7     7     8    1
    8     7     9    1
    9     7    10    1
   10    10    11    1
   11    10    12    1
   12    10    13    1
   13    13    14    1
   14    13    15    1
   15    15    16    1
   16    15    17    1
   17     1    18    1
   18    15    18    1
   19    18    19    1
   20    18    20    1
   21    13    21    1
   22    21    22    1
@<TRIPOS>SUBSTRUCTURE
       1 MOL1            1 RESIDUE      1      MOL     
@<SCITEGIC>MOL_PROPERTY
VConf Rank
SciTegic.value.IntegerValue
561

@<SCITEGIC>MOL_PROPERTY
Conf_Id
SciTegic.value.IntegerValue
141

@<SCITEGIC>MOL_PROPERTY
Delta U+W
SciTegic.value.DoubleValue
0.000

@<SCITEGIC>MOL_PROPERTY
U+W
SciTegic.value.DoubleValue
6.423

@<SCITEGIC>MOL_PROPERTY
Grad RMS
SciTegic.value.DoubleValue
0.000000

@<SCITEGIC>MOL_PROPERTY
U
SciTegic.value.DoubleValue
8.781

@<SCITEGIC>MOL_PROPERTY
W
SciTegic.value.DoubleValue
-2.358

@<SCITEGIC>MOL_PROPERTY
W(PB)
SciTegic.value.DoubleValue
-4.373

@<SCITEGIC>MOL_PROPERTY
W(SA)
SciTegic.value.DoubleValue
2.015

@<SCITEGIC>MOL_PROPERTY
Valence
SciTegic.value.DoubleValue
13.328

@<SCITEGIC>MOL_PROPERTY
Coulomb
SciTegic.value.DoubleValue
-8.387

@<SCITEGIC>MOL_PROPERTY
VdW
SciTegic.value.DoubleValue
3.840

@<SCITEGIC>MOL_PROPERTY
VdW6
SciTegic.value.DoubleValue
-9.744

@<SCITEGIC>MOL_PROPERTY
VdW12
SciTegic.value.DoubleValue
13.584

@<SCITEGIC>MOL_PROPERTY
Bond
SciTegic.value.DoubleValue
0.436

@<SCITEGIC>MOL_PROPERTY
Angle
SciTegic.value.DoubleValue
3.478

@<SCITEGIC>MOL_PROPERTY
Pdih
SciTegic.value.DoubleValue
9.415

@<SCITEGIC>MOL_PROPERTY
Idih
SciTegic.value.DoubleValue
0.000

@<SCITEGIC>MOL_PROPERTY
Tether
SciTegic.value.DoubleValue
0.000

@<TRIPOS>MOLECULE
guest-5_confgen4.mol2 : confsearch ligand conformer 562
          22          22           1
SMALL
USER_CHARGES
 
@<TRIPOS>ATOM
       1    C1      18.381239   19.135418   23.171039 C.3        1 MOL1        -0.1685
       2    H1      18.232564   18.664881   22.189662 H          1 MOL1         0.0832
       3    H2      17.472596   18.922528   23.750651 H          1 MOL1         0.0832
       4    C2      18.502286   20.672488   23.035319 C.3        1 MOL1        -0.1685
       5    H3      17.526369   21.074827   22.731074 H          1 MOL1         0.0832
       6    H4      18.711066   21.109783   24.021251 H          1 MOL1         0.0832
       7    C3      19.562936   21.163516   22.023270 C.3        1 MOL1        -0.1685
       8    H5      19.598181   22.260539   22.069387 H          1 MOL1         0.0832
       9    H6      19.236172   20.916906   21.003776 H          1 MOL1         0.0832
      10    C4      20.991518   20.613054   22.254192 C.3        1 MOL1        -0.1761
      11    H7      21.678854   21.202891   21.633591 H          1 MOL1         0.0832
      12    H8      21.304897   20.773327   23.293953 H          1 MOL1         0.0832
      13    C5      21.125116   19.121750   21.872367 C.3        1 MOL1         0.1218
      14    H9      20.448180   18.920247   21.029754 H          1 MOL1         0.0789
      15    C6      20.787293   18.134375   23.012659 C.3        1 MOL1        -0.1761
      16    H10     20.602230   17.153028   22.557072 H          1 MOL1         0.0832
      17    H11     21.668572   18.006187   23.655329 H          1 MOL1         0.0832
      18    C7      19.580688   18.500415   23.912750 C.3        1 MOL1        -0.1685
      19    H12     19.243758   17.584768   24.417618 H          1 MOL1         0.0832
      20    H13     19.911752   19.173632   24.715174 H          1 MOL1         0.0832
      21    O1      22.462271   18.873236   21.455863 O.3        1 MOL1        -0.5509
      22    H14     22.630519   19.454712   20.685021 H          1 MOL1         0.3779
@<TRIPOS>BOND
    1     1     2    1
    2     1     3    1
    3     1     4    1
    4     4     5    1
    5     4     6    1
    6     4     7    1
    7     7     8    1
    8     7     9    1
    9     7    10    1
   10    10    11    1
   11    10    12    1
   12    10    13    1
   13    13    14    1
   14    13    15    1
   15    15    16    1
   16    15    17    1
   17     1    18    1
   18    15    18    1
   19    18    19    1
   20    18    20    1
   21    13    21    1
   22    21    22    1
@<TRIPOS>SUBSTRUCTURE
       1 MOL1            1 RESIDUE      1      MOL     
@<SCITEGIC>MOL_PROPERTY
VConf Rank
SciTegic.value.IntegerValue
562

@<SCITEGIC>MOL_PROPERTY
Conf_Id
SciTegic.value.IntegerValue
144

@<SCITEGIC>MOL_PROPERTY
Delta U+W
SciTegic.value.DoubleValue
-3.291

@<SCITEGIC>MOL_PROPERTY
U+W
SciTegic.value.DoubleValue
3.132

@<SCITEGIC>MOL_PROPERTY
Grad RMS
SciTegic.value.DoubleValue
0.000000

@<SCITEGIC>MOL_PROPERTY
U
SciTegic.value.DoubleValue
5.411

@<SCITEGIC>MOL_PROPERTY
W
SciTegic.value.DoubleValue
-2.279

@<SCITEGIC>MOL_PROPERTY
W(PB)
SciTegic.value.DoubleValue
-4.300

@<SCITEGIC>MOL_PROPERTY
W(SA)
SciTegic.value.DoubleValue
2.021

@<SCITEGIC>MOL_PROPERTY
Valence
SciTegic.value.DoubleValue
11.909

@<SCITEGIC>MOL_PROPERTY
Coulomb
SciTegic.value.DoubleValue
-8.733

@<SCITEGIC>MOL_PROPERTY
VdW
SciTegic.value.DoubleValue
2.236

@<SCITEGIC>MOL_PROPERTY
VdW6
SciTegic.value.DoubleValue
-8.936

@<SCITEGIC>MOL_PROPERTY
VdW12
SciTegic.value.DoubleValue
11.172

@<SCITEGIC>MOL_PROPERTY
Bond
SciTegic.value.DoubleValue
0.223

@<SCITEGIC>MOL_PROPERTY
Angle
SciTegic.value.DoubleValue
2.457

@<SCITEGIC>MOL_PROPERTY
Pdih
SciTegic.value.DoubleValue
9.228

@<SCITEGIC>MOL_PROPERTY
Idih
SciTegic.value.DoubleValue
0.000

@<SCITEGIC>MOL_PROPERTY
Tether
SciTegic.value.DoubleValue
0.000

@<TRIPOS>MOLECULE
guest-5_confgen4.mol2 : confsearch ligand conformer 563
          22          22           1
SMALL
USER_CHARGES
 
@<TRIPOS>ATOM
       1    C1      20.863068   19.419159   21.192926 C.3        1 MOL1        -0.1685
       2    H1      21.183327   19.376440   20.142926 H          1 MOL1         0.0832
       3    H2      21.773367   19.288930   21.793823 H          1 MOL1         0.0832
       4    C2      19.870364   18.258712   21.437824 C.3        1 MOL1        -0.1685
       5    H3      18.868018   18.558177   21.102568 H          1 MOL1         0.0832
       6    H4      20.151252   17.410035   20.799194 H          1 MOL1         0.0832
       7    C3      19.799670   17.752734   22.898957 C.3        1 MOL1        -0.1685
       8    H5      20.612562   17.033270   23.067761 H          1 MOL1         0.0832
       9    H6      18.867835   17.183329   23.019290 H          1 MOL1         0.0832
      10    C4      19.875808   18.834295   24.004656 C.3        1 MOL1        -0.1761
      11    H7      19.487628   18.393552   24.932843 H          1 MOL1         0.0832
      12    H8      20.928679   19.071164   24.205280 H          1 MOL1         0.0832
      13    C5      19.108972   20.139177   23.693466 C.3        1 MOL1         0.1218
      14    H9      18.204730   19.905546   23.113611 H          1 MOL1         0.0789
      15    C6      19.970857   21.162893   22.920073 C.3        1 MOL1        -0.1761
      16    H10     19.470968   22.140187   22.953794 H          1 MOL1         0.0832
      17    H11     20.931537   21.295740   23.434399 H          1 MOL1         0.0832
      18    C7      20.234183   20.812077   21.436394 C.3        1 MOL1        -0.1685
      19    H12     19.295527   20.892389   20.871239 H          1 MOL1         0.0832
      20    H13     20.902409   21.576269   21.016548 H          1 MOL1         0.0832
      21    O1      18.723448   20.735329   24.924801 O.3        1 MOL1        -0.5509
      22    H14     19.551867   20.926223   25.411053 H          1 MOL1         0.3779
@<TRIPOS>BOND
    1     1     2    1
    2     1     3    1
    3     1     4    1
    4     4     5    1
    5     4     6    1
    6     4     7    1
    7     7     8    1
    8     7     9    1
    9     7    10    1
   10    10    11    1
   11    10    12    1
   12    10    13    1
   13    13    14    1
   14    13    15    1
   15    15    16    1
   16    15    17    1
   17     1    18    1
   18    15    18    1
   19    18    19    1
   20    18    20    1
   21    13    21    1
   22    21    22    1
@<TRIPOS>SUBSTRUCTURE
       1 MOL1            1 RESIDUE      1      MOL     
@<SCITEGIC>MOL_PROPERTY
VConf Rank
SciTegic.value.IntegerValue
563

@<SCITEGIC>MOL_PROPERTY
Conf_Id
SciTegic.value.IntegerValue
76

@<SCITEGIC>MOL_PROPERTY
Delta U+W
SciTegic.value.DoubleValue
-3.175

@<SCITEGIC>MOL_PROPERTY
U+W
SciTegic.value.DoubleValue
3.248

@<SCITEGIC>MOL_PROPERTY
Grad RMS
SciTegic.value.DoubleValue
0.000000

@<SCITEGIC>MOL_PROPERTY
U
SciTegic.value.DoubleValue
5.336

@<SCITEGIC>MOL_PROPERTY
W
SciTegic.value.DoubleValue
-2.088

@<SCITEGIC>MOL_PROPERTY
W(PB)
SciTegic.value.DoubleValue
-4.098

@<SCITEGIC>MOL_PROPERTY
W(SA)
SciTegic.value.DoubleValue
2.010

@<SCITEGIC>MOL_PROPERTY
Valence
SciTegic.value.DoubleValue
12.390

@<SCITEGIC>MOL_PROPERTY
Coulomb
SciTegic.value.DoubleValue
-9.270

@<SCITEGIC>MOL_PROPERTY
VdW
SciTegic.value.DoubleValue
2.216

@<SCITEGIC>MOL_PROPERTY
VdW6
SciTegic.value.DoubleValue
-8.967

@<SCITEGIC>MOL_PROPERTY
VdW12
SciTegic.value.DoubleValue
11.183

@<SCITEGIC>MOL_PROPERTY
Bond
SciTegic.value.DoubleValue
0.218

@<SCITEGIC>MOL_PROPERTY
Angle
SciTegic.value.DoubleValue
2.426

@<SCITEGIC>MOL_PROPERTY
Pdih
SciTegic.value.DoubleValue
9.745

@<SCITEGIC>MOL_PROPERTY
Idih
SciTegic.value.DoubleValue
0.000

@<SCITEGIC>MOL_PROPERTY
Tether
SciTegic.value.DoubleValue
0.000

@<TRIPOS>MOLECULE
guest-5_confgen4.mol2 : confsearch ligand conformer 564
          22          22           1
SMALL
USER_CHARGES
 
@<TRIPOS>ATOM
       1    C1      20.827137   20.589250   24.058080 C.3        1 MOL1        -0.1685
       2    H1      21.462708   20.235984   24.881508 H          1 MOL1         0.0832
       3    H2      20.794413   21.683036   24.154912 H          1 MOL1         0.0832
       4    C2      19.402155   20.024242   24.269900 C.3        1 MOL1        -0.1685
       5    H3      19.468094   19.010070   24.686537 H          1 MOL1         0.0832
       6    H4      18.909227   20.628114   25.043945 H          1 MOL1         0.0832
       7    C3      18.511639   20.004174   23.005732 C.3        1 MOL1        -0.1685
       8    H5      18.690182   20.892339   22.384346 H          1 MOL1         0.0832
       9    H6      17.462817   20.062572   23.326438 H          1 MOL1         0.0832
      10    C4      18.679276   18.707037   22.174218 C.3        1 MOL1        -0.1761
      11    H7      18.566744   17.837922   22.834890 H          1 MOL1         0.0832
      12    H8      17.850632   18.641257   21.456975 H          1 MOL1         0.0832
      13    C5      20.002325   18.566165   21.387584 C.3        1 MOL1         0.1218
      14    H9      20.038678   17.533822   21.010697 H          1 MOL1         0.0789
      15    C6      21.290371   18.793799   22.218012 C.3        1 MOL1        -0.1761
      16    H10     21.311153   18.101577   23.069643 H          1 MOL1         0.0832
      17    H11     22.144314   18.513397   21.587978 H          1 MOL1         0.0832
      18    C7      21.508122   20.247942   22.711235 C.3        1 MOL1        -0.1685
      19    H12     22.586187   20.425241   22.824209 H          1 MOL1         0.0832
      20    H13     21.175413   20.959708   21.944335 H          1 MOL1         0.0832
      21    O1      19.979431   19.446361   20.268320 O.3        1 MOL1        -0.5509
      22    H14     20.851203   19.363798   19.830734 H          1 MOL1         0.3779
@<TRIPOS>BOND
    1     1     2    1
    2     1     3    1
    3     1     4    1
    4     4     5    1
    5     4     6    1
    6     4     7    1
    7     7     8    1
    8     7     9    1
    9     7    10    1
   10    10    11    1
   11    10    12    1
   12    10    13    1
   13    13    14    1
   14    13    15    1
   15    15    16    1
   16    15    17    1
   17     1    18    1
   18    15    18    1
   19    18    19    1
   20    18    20    1
   21    13    21    1
   22    21    22    1
@<TRIPOS>SUBSTRUCTURE
       1 MOL1            1 RESIDUE      1      MOL     
@<SCITEGIC>MOL_PROPERTY
VConf Rank
SciTegic.value.IntegerValue
564

@<SCITEGIC>MOL_PROPERTY
Conf_Id
SciTegic.value.IntegerValue
95

@<SCITEGIC>MOL_PROPERTY
Delta U+W
SciTegic.value.DoubleValue
-2.289

@<SCITEGIC>MOL_PROPERTY
U+W
SciTegic.value.DoubleValue
4.134

@<SCITEGIC>MOL_PROPERTY
Grad RMS
SciTegic.value.DoubleValue
0.000000

@<SCITEGIC>MOL_PROPERTY
U
SciTegic.value.DoubleValue
6.373

@<SCITEGIC>MOL_PROPERTY
W
SciTegic.value.DoubleValue
-2.240

@<SCITEGIC>MOL_PROPERTY
W(PB)
SciTegic.value.DoubleValue
-4.254

@<SCITEGIC>MOL_PROPERTY
W(SA)
SciTegic.value.DoubleValue
2.015

@<SCITEGIC>MOL_PROPERTY
Valence
SciTegic.value.DoubleValue
12.093

@<SCITEGIC>MOL_PROPERTY
Coulomb
SciTegic.value.DoubleValue
-8.058

@<SCITEGIC>MOL_PROPERTY
VdW
SciTegic.value.DoubleValue
2.339

@<SCITEGIC>MOL_PROPERTY
VdW6
SciTegic.value.DoubleValue
-9.683

@<SCITEGIC>MOL_PROPERTY
VdW12
SciTegic.value.DoubleValue
12.022

@<SCITEGIC>MOL_PROPERTY
Bond
SciTegic.value.DoubleValue
0.268

@<SCITEGIC>MOL_PROPERTY
Angle
SciTegic.value.DoubleValue
3.005

@<SCITEGIC>MOL_PROPERTY
Pdih
SciTegic.value.DoubleValue
8.820

@<SCITEGIC>MOL_PROPERTY
Idih
SciTegic.value.DoubleValue
0.000

@<SCITEGIC>MOL_PROPERTY
Tether
SciTegic.value.DoubleValue
0.000

@<TRIPOS>MOLECULE
guest-5_confgen4.mol2 : confsearch ligand conformer 565
          22          22           1
SMALL
USER_CHARGES
 
@<TRIPOS>ATOM
       1    C1      20.782301   20.199837   24.375163 C.3        1 MOL1        -0.1685
       2    H1      20.247440   20.586569   25.253295 H          1 MOL1         0.0832
       3    H2      21.842196   20.167699   24.662181 H          1 MOL1         0.0832
       4    C2      20.607259   21.211570   23.217543 C.3        1 MOL1        -0.1685
       5    H3      19.600854   21.649233   23.263145 H          1 MOL1         0.0832
       6    H4      21.298708   22.047577   23.390140 H          1 MOL1         0.0832
       7    C3      20.855775   20.638315   21.802928 C.3        1 MOL1        -0.1685
       8    H5      21.684403   19.917113   21.810902 H          1 MOL1         0.0832
       9    H6      21.176080   21.463631   21.152787 H          1 MOL1         0.0832
      10    C4      19.582401   20.012894   21.179488 C.3        1 MOL1        -0.1761
      11    H7      18.753027   20.726829   21.265117 H          1 MOL1         0.0832
      12    H8      19.745933   19.884836   20.101601 H          1 MOL1         0.0832
      13    C5      19.130313   18.656805   21.768023 C.3        1 MOL1         0.1218
      14    H9      18.136696   18.443717   21.348000 H          1 MOL1         0.0789
      15    C6      18.987953   18.623804   23.310416 C.3        1 MOL1        -0.1761
      16    H10     18.280469   19.396256   23.637940 H          1 MOL1         0.0832
      17    H11     18.525920   17.663357   23.572899 H          1 MOL1         0.0832
      18    C7      20.317855   18.749991   24.098375 C.3        1 MOL1        -0.1685
      19    H12     20.204258   18.241798   25.065356 H          1 MOL1         0.0832
      20    H13     21.114426   18.203918   23.575979 H          1 MOL1         0.0832
      21    O1      20.022825   17.633837   21.336918 O.3        1 MOL1        -0.5509
      22    H14     20.089242   17.710229   20.363296 H          1 MOL1         0.3779
@<TRIPOS>BOND
    1     1     2    1
    2     1     3    1
    3     1     4    1
    4     4     5    1
    5     4     6    1
    6     4     7    1
    7     7     8    1
    8     7     9    1
    9     7    10    1
   10    10    11    1
   11    10    12    1
   12    10    13    1
   13    13    14    1
   14    13    15    1
   15    15    16    1
   16    15    17    1
   17     1    18    1
   18    15    18    1
   19    18    19    1
   20    18    20    1
   21    13    21    1
   22    21    22    1
@<TRIPOS>SUBSTRUCTURE
       1 MOL1            1 RESIDUE      1      MOL     
@<SCITEGIC>MOL_PROPERTY
VConf Rank
SciTegic.value.IntegerValue
565

@<SCITEGIC>MOL_PROPERTY
Conf_Id
SciTegic.value.IntegerValue
41

@<SCITEGIC>MOL_PROPERTY
Delta U+W
SciTegic.value.DoubleValue
-2.114

@<SCITEGIC>MOL_PROPERTY
U+W
SciTegic.value.DoubleValue
4.310

@<SCITEGIC>MOL_PROPERTY
Grad RMS
SciTegic.value.DoubleValue
0.000000

@<SCITEGIC>MOL_PROPERTY
U
SciTegic.value.DoubleValue
6.598

@<SCITEGIC>MOL_PROPERTY
W
SciTegic.value.DoubleValue
-2.289

@<SCITEGIC>MOL_PROPERTY
W(PB)
SciTegic.value.DoubleValue
-4.294

@<SCITEGIC>MOL_PROPERTY
W(SA)
SciTegic.value.DoubleValue
2.005

@<SCITEGIC>MOL_PROPERTY
Valence
SciTegic.value.DoubleValue
12.082

@<SCITEGIC>MOL_PROPERTY
Coulomb
SciTegic.value.DoubleValue
-7.801

@<SCITEGIC>MOL_PROPERTY
VdW
SciTegic.value.DoubleValue
2.317

@<SCITEGIC>MOL_PROPERTY
VdW6
SciTegic.value.DoubleValue
-9.658

@<SCITEGIC>MOL_PROPERTY
VdW12
SciTegic.value.DoubleValue
11.975

@<SCITEGIC>MOL_PROPERTY
Bond
SciTegic.value.DoubleValue
0.267

@<SCITEGIC>MOL_PROPERTY
Angle
SciTegic.value.DoubleValue
3.051

@<SCITEGIC>MOL_PROPERTY
Pdih
SciTegic.value.DoubleValue
8.764

@<SCITEGIC>MOL_PROPERTY
Idih
SciTegic.value.DoubleValue
0.000

@<SCITEGIC>MOL_PROPERTY
Tether
SciTegic.value.DoubleValue
0.000

@<TRIPOS>MOLECULE
guest-5_confgen4.mol2 : confsearch ligand conformer 566
          22          22           1
SMALL
USER_CHARGES
 
@<TRIPOS>ATOM
       1    C1      21.172223   20.071479   21.570052 C.3        1 MOL1        -0.1685
       2    H1      21.999340   20.189935   20.857034 H          1 MOL1         0.0832
       3    H2      20.408731   20.806812   21.281016 H          1 MOL1         0.0832
       4    C2      21.717459   20.376555   22.983216 C.3        1 MOL1        -0.1685
       5    H3      22.432179   19.596173   23.277768 H          1 MOL1         0.0832
       6    H4      22.292302   21.311704   22.943073 H          1 MOL1         0.0832
       7    C3      20.634072   20.521439   24.074319 C.3        1 MOL1        -0.1685
       8    H5      20.049026   21.432221   23.889691 H          1 MOL1         0.0832
       9    H6      21.140898   20.687232   25.034405 H          1 MOL1         0.0832
      10    C4      19.684628   19.302306   24.227473 C.3        1 MOL1        -0.1761
      11    H7      20.269860   18.380195   24.334584 H          1 MOL1         0.0832
      12    H8      19.142321   19.420681   25.174296 H          1 MOL1         0.0832
      13    C5      18.622378   19.124745   23.112067 C.3        1 MOL1         0.1218
      14    H9      17.854143   18.447831   23.513164 H          1 MOL1         0.0789
      15    C6      19.124633   18.475319   21.796344 C.3        1 MOL1        -0.1761
      16    H10     18.908525   17.400164   21.845337 H          1 MOL1         0.0832
      17    H11     18.522814   18.852175   20.958928 H          1 MOL1         0.0832
      18    C7      20.623524   18.633443   21.439662 C.3        1 MOL1        -0.1685
      19    H12     21.226672   17.948553   22.050851 H          1 MOL1         0.0832
      20    H13     20.758804   18.298676   20.402210 H          1 MOL1         0.0832
      21    O1      17.991298   20.369196   22.822239 O.3        1 MOL1        -0.5509
      22    H14     17.308057   20.188795   22.145078 H          1 MOL1         0.3779
@<TRIPOS>BOND
    1     1     2    1
    2     1     3    1
    3     1     4    1
    4     4     5    1
    5     4     6    1
    6     4     7    1
    7     7     8    1
    8     7     9    1
    9     7    10    1
   10    10    11    1
   11    10    12    1
   12    10    13    1
   13    13    14    1
   14    13    15    1
   15    15    16    1
   16    15    17    1
   17     1    18    1
   18    15    18    1
   19    18    19    1
   20    18    20    1
   21    13    21    1
   22    21    22    1
@<TRIPOS>SUBSTRUCTURE
       1 MOL1            1 RESIDUE      1      MOL     
@<SCITEGIC>MOL_PROPERTY
VConf Rank
SciTegic.value.IntegerValue
566

@<SCITEGIC>MOL_PROPERTY
Conf_Id
SciTegic.value.IntegerValue
104

@<SCITEGIC>MOL_PROPERTY
Delta U+W
SciTegic.value.DoubleValue
-1.172

@<SCITEGIC>MOL_PROPERTY
U+W
SciTegic.value.DoubleValue
5.252

@<SCITEGIC>MOL_PROPERTY
Grad RMS
SciTegic.value.DoubleValue
0.000000

@<SCITEGIC>MOL_PROPERTY
U
SciTegic.value.DoubleValue
7.482

@<SCITEGIC>MOL_PROPERTY
W
SciTegic.value.DoubleValue
-2.230

@<SCITEGIC>MOL_PROPERTY
W(PB)
SciTegic.value.DoubleValue
-4.220

@<SCITEGIC>MOL_PROPERTY
W(SA)
SciTegic.value.DoubleValue
1.990

@<SCITEGIC>MOL_PROPERTY
Valence
SciTegic.value.DoubleValue
12.309

@<SCITEGIC>MOL_PROPERTY
Coulomb
SciTegic.value.DoubleValue
-7.084

@<SCITEGIC>MOL_PROPERTY
VdW
SciTegic.value.DoubleValue
2.258

@<SCITEGIC>MOL_PROPERTY
VdW6
SciTegic.value.DoubleValue
-9.770

@<SCITEGIC>MOL_PROPERTY
VdW12
SciTegic.value.DoubleValue
12.028

@<SCITEGIC>MOL_PROPERTY
Bond
SciTegic.value.DoubleValue
0.284

@<SCITEGIC>MOL_PROPERTY
Angle
SciTegic.value.DoubleValue
3.491

@<SCITEGIC>MOL_PROPERTY
Pdih
SciTegic.value.DoubleValue
8.535

@<SCITEGIC>MOL_PROPERTY
Idih
SciTegic.value.DoubleValue
0.000

@<SCITEGIC>MOL_PROPERTY
Tether
SciTegic.value.DoubleValue
0.000

@<TRIPOS>MOLECULE
guest-5_confgen4.mol2 : confsearch ligand conformer 567
          22          22           1
SMALL
USER_CHARGES
 
@<TRIPOS>ATOM
       1    C1      20.890864   20.768208   23.461461 C.3        1 MOL1        -0.1685
       2    H1      21.579174   20.055789   23.935984 H          1 MOL1         0.0832
       3    H2      21.178874   21.760662   23.834320 H          1 MOL1         0.0832
       4    C2      19.432638   20.503123   23.900538 C.3        1 MOL1        -0.1685
       5    H3      19.282439   20.938700   24.898016 H          1 MOL1         0.0832
       6    H4      18.748765   21.056138   23.243402 H          1 MOL1         0.0832
       7    C3      19.012034   19.013090   23.968144 C.3        1 MOL1        -0.1685
       8    H5      17.922606   18.953007   23.838331 H          1 MOL1         0.0832
       9    H6      19.204837   18.643481   24.984582 H          1 MOL1         0.0832
      10    C4      19.697954   18.034415   22.976725 C.3        1 MOL1        -0.1761
      11    H7      20.697194   17.782393   23.354824 H          1 MOL1         0.0832
      12    H8      19.138395   17.090122   22.991100 H          1 MOL1         0.0832
      13    C5      19.825124   18.495174   21.506518 C.3        1 MOL1         0.1218
      14    H9      19.946523   17.592682   20.890358 H          1 MOL1         0.0789
      15    C6      21.070705   19.375853   21.259129 C.3        1 MOL1        -0.1761
      16    H10     21.961651   18.824850   21.587263 H          1 MOL1         0.0832
      17    H11     21.187067   19.507206   20.175408 H          1 MOL1         0.0832
      18    C7      21.072068   20.774279   21.924858 C.3        1 MOL1        -0.1685
      19    H12     22.031484   21.256283   21.692686 H          1 MOL1         0.0832
      20    H13     20.303879   21.408077   21.461540 H          1 MOL1         0.0832
      21    O1      18.652094   19.180120   21.095400 O.3        1 MOL1        -0.5509
      22    H14     18.567339   19.913867   21.736273 H          1 MOL1         0.3779
@<TRIPOS>BOND
    1     1     2    1
    2     1     3    1
    3     1     4    1
    4     4     5    1
    5     4     6    1
    6     4     7    1
    7     7     8    1
    8     7     9    1
    9     7    10    1
   10    10    11    1
   11    10    12    1
   12    10    13    1
   13    13    14    1
   14    13    15    1
   15    15    16    1
   16    15    17    1
   17     1    18    1
   18    15    18    1
   19    18    19    1
   20    18    20    1
   21    13    21    1
   22    21    22    1
@<TRIPOS>SUBSTRUCTURE
       1 MOL1            1 RESIDUE      1      MOL     
@<SCITEGIC>MOL_PROPERTY
VConf Rank
SciTegic.value.IntegerValue
567

@<SCITEGIC>MOL_PROPERTY
Conf_Id
SciTegic.value.IntegerValue
99

@<SCITEGIC>MOL_PROPERTY
Delta U+W
SciTegic.value.DoubleValue
-3.852

@<SCITEGIC>MOL_PROPERTY
U+W
SciTegic.value.DoubleValue
2.572

@<SCITEGIC>MOL_PROPERTY
Grad RMS
SciTegic.value.DoubleValue
0.000000

@<SCITEGIC>MOL_PROPERTY
U
SciTegic.value.DoubleValue
3.922

@<SCITEGIC>MOL_PROPERTY
W
SciTegic.value.DoubleValue
-1.350

@<SCITEGIC>MOL_PROPERTY
W(PB)
SciTegic.value.DoubleValue
-3.345

@<SCITEGIC>MOL_PROPERTY
W(SA)
SciTegic.value.DoubleValue
1.995

@<SCITEGIC>MOL_PROPERTY
Valence
SciTegic.value.DoubleValue
12.571

@<SCITEGIC>MOL_PROPERTY
Coulomb
SciTegic.value.DoubleValue
-10.581

@<SCITEGIC>MOL_PROPERTY
VdW
SciTegic.value.DoubleValue
1.932

@<SCITEGIC>MOL_PROPERTY
VdW6
SciTegic.value.DoubleValue
-10.483

@<SCITEGIC>MOL_PROPERTY
VdW12
SciTegic.value.DoubleValue
12.415

@<SCITEGIC>MOL_PROPERTY
Bond
SciTegic.value.DoubleValue
0.268

@<SCITEGIC>MOL_PROPERTY
Angle
SciTegic.value.DoubleValue
3.728

@<SCITEGIC>MOL_PROPERTY
Pdih
SciTegic.value.DoubleValue
8.575

@<SCITEGIC>MOL_PROPERTY
Idih
SciTegic.value.DoubleValue
0.000

@<SCITEGIC>MOL_PROPERTY
Tether
SciTegic.value.DoubleValue
0.000

@<TRIPOS>MOLECULE
guest-5_confgen4.mol2 : confsearch ligand conformer 568
          22          22           1
SMALL
USER_CHARGES
 
@<TRIPOS>ATOM
       1    C1      18.577448   19.690743   23.403599 C.3        1 MOL1        -0.1685
       2    H1      17.519178   19.986301   23.405254 H          1 MOL1         0.0832
       3    H2      18.732972   19.189892   24.368490 H          1 MOL1         0.0832
       4    C2      19.435245   20.987788   23.328044 C.3        1 MOL1        -0.1685
       5    H3      18.748260   21.844752   23.297163 H          1 MOL1         0.0832
       6    H4      20.007867   21.117365   24.256143 H          1 MOL1         0.0832
       7    C3      20.387652   21.101998   22.110412 C.3        1 MOL1        -0.1685
       8    H5      20.779737   22.127444   22.072276 H          1 MOL1         0.0832
       9    H6      19.815426   20.990993   21.181000 H          1 MOL1         0.0832
      10    C4      21.599409   20.129188   22.099712 C.3        1 MOL1        -0.1761
      11    H7      21.946824   20.025517   21.063712 H          1 MOL1         0.0832
      12    H8      22.430309   20.604324   22.638086 H          1 MOL1         0.0832
      13    C5      21.406501   18.713037   22.695918 C.3        1 MOL1         0.1218
      14    H9      22.280137   18.117706   22.394065 H          1 MOL1         0.0789
      15    C6      20.150338   17.937797   22.227728 C.3        1 MOL1        -0.1761
      16    H10     20.326565   17.574912   21.206945 H          1 MOL1         0.0832
      17    H11     20.069409   17.034358   22.846796 H          1 MOL1         0.0832
      18    C7      18.781777   18.673496   22.251985 C.3        1 MOL1        -0.1685
      19    H12     18.609298   19.166649   21.287300 H          1 MOL1         0.0832
      20    H13     17.992368   17.912435   22.317902 H          1 MOL1         0.0832
      21    O1      21.419581   18.787140   24.112809 O.3        1 MOL1        -0.5509
      22    H14     20.629572   19.322066   24.328847 H          1 MOL1         0.3779
@<TRIPOS>BOND
    1     1     2    1
    2     1     3    1
    3     1     4    1
    4     4     5    1
    5     4     6    1
    6     4     7    1
    7     7     8    1
    8     7     9    1
    9     7    10    1
   10    10    11    1
   11    10    12    1
   12    10    13    1
   13    13    14    1
   14    13    15    1
   15    15    16    1
   16    15    17    1
   17     1    18    1
   18    15    18    1
   19    18    19    1
   20    18    20    1
   21    13    21    1
   22    21    22    1
@<TRIPOS>SUBSTRUCTURE
       1 MOL1            1 RESIDUE      1      MOL     
@<SCITEGIC>MOL_PROPERTY
VConf Rank
SciTegic.value.IntegerValue
568

@<SCITEGIC>MOL_PROPERTY
Conf_Id
SciTegic.value.IntegerValue
98

@<SCITEGIC>MOL_PROPERTY
Delta U+W
SciTegic.value.DoubleValue
0.930

@<SCITEGIC>MOL_PROPERTY
U+W
SciTegic.value.DoubleValue
7.353

@<SCITEGIC>MOL_PROPERTY
Grad RMS
SciTegic.value.DoubleValue
0.000000

@<SCITEGIC>MOL_PROPERTY
U
SciTegic.value.DoubleValue
8.455

@<SCITEGIC>MOL_PROPERTY
W
SciTegic.value.DoubleValue
-1.102

@<SCITEGIC>MOL_PROPERTY
W(PB)
SciTegic.value.DoubleValue
-3.101

@<SCITEGIC>MOL_PROPERTY
W(SA)
SciTegic.value.DoubleValue
2.000

@<SCITEGIC>MOL_PROPERTY
Valence
SciTegic.value.DoubleValue
15.601

@<SCITEGIC>MOL_PROPERTY
Coulomb
SciTegic.value.DoubleValue
-10.573

@<SCITEGIC>MOL_PROPERTY
VdW
SciTegic.value.DoubleValue
3.427

@<SCITEGIC>MOL_PROPERTY
VdW6
SciTegic.value.DoubleValue
-11.360

@<SCITEGIC>MOL_PROPERTY
VdW12
SciTegic.value.DoubleValue
14.787

@<SCITEGIC>MOL_PROPERTY
Bond
SciTegic.value.DoubleValue
0.471

@<SCITEGIC>MOL_PROPERTY
Angle
SciTegic.value.DoubleValue
5.445

@<SCITEGIC>MOL_PROPERTY
Pdih
SciTegic.value.DoubleValue
9.685

@<SCITEGIC>MOL_PROPERTY
Idih
SciTegic.value.DoubleValue
0.000

@<SCITEGIC>MOL_PROPERTY
Tether
SciTegic.value.DoubleValue
0.000

@<TRIPOS>MOLECULE
guest-5_confgen4.mol2 : confsearch ligand conformer 569
          22          22           1
SMALL
USER_CHARGES
 
@<TRIPOS>ATOM
       1    C1      19.225300   21.059296   22.707053 C.3        1 MOL1        -0.1685
       2    H1      19.734013   21.296670   21.763843 H          1 MOL1         0.0832
       3    H2      18.586222   21.928715   22.912971 H          1 MOL1         0.0832
       4    C2      20.267698   20.932279   23.846980 C.3        1 MOL1        -0.1685
       5    H3      20.801117   21.890219   23.915465 H          1 MOL1         0.0832
       6    H4      19.749054   20.811319   24.807709 H          1 MOL1         0.0832
       7    C3      21.322294   19.801842   23.690189 C.3        1 MOL1        -0.1685
       8    H5      21.069077   18.957525   24.344424 H          1 MOL1         0.0832
       9    H6      22.283303   20.175005   24.069459 H          1 MOL1         0.0832
      10    C4      21.525570   19.289412   22.239739 C.3        1 MOL1        -0.1761
      11    H7      21.715267   20.144580   21.579187 H          1 MOL1         0.0832
      12    H8      22.451296   18.699092   22.209063 H          1 MOL1         0.0832
      13    C5      20.364047   18.436251   21.650799 C.3        1 MOL1         0.1218
      14    H9      20.157189   18.801238   20.634403 H          1 MOL1         0.0789
      15    C6      19.037156   18.455359   22.450333 C.3        1 MOL1        -0.1761
      16    H10     18.344626   17.727965   22.007212 H          1 MOL1         0.0832
      17    H11     19.215620   18.094345   23.470337 H          1 MOL1         0.0832
      18    C7      18.315149   19.824804   22.506318 C.3        1 MOL1        -0.1685
      19    H12     17.748259   19.966022   21.575992 H          1 MOL1         0.0832
      20    H13     17.568991   19.792396   23.311842 H          1 MOL1         0.0832
      21    O1      20.794695   17.082193   21.571767 O.3        1 MOL1        -0.5509
      22    H14     20.069309   16.579273   21.146250 H          1 MOL1         0.3779
@<TRIPOS>BOND
    1     1     2    1
    2     1     3    1
    3     1     4    1
    4     4     5    1
    5     4     6    1
    6     4     7    1
    7     7     8    1
    8     7     9    1
    9     7    10    1
   10    10    11    1
   11    10    12    1
   12    10    13    1
   13    13    14    1
   14    13    15    1
   15    15    16    1
   16    15    17    1
   17     1    18    1
   18    15    18    1
   19    18    19    1
   20    18    20    1
   21    13    21    1
   22    21    22    1
@<TRIPOS>SUBSTRUCTURE
       1 MOL1            1 RESIDUE      1      MOL     
@<SCITEGIC>MOL_PROPERTY
VConf Rank
SciTegic.value.IntegerValue
569

@<SCITEGIC>MOL_PROPERTY
Conf_Id
SciTegic.value.IntegerValue
141

@<SCITEGIC>MOL_PROPERTY
Delta U+W
SciTegic.value.DoubleValue
0.000

@<SCITEGIC>MOL_PROPERTY
U+W
SciTegic.value.DoubleValue
6.423

@<SCITEGIC>MOL_PROPERTY
Grad RMS
SciTegic.value.DoubleValue
0.000000

@<SCITEGIC>MOL_PROPERTY
U
SciTegic.value.DoubleValue
8.781

@<SCITEGIC>MOL_PROPERTY
W
SciTegic.value.DoubleValue
-2.358

@<SCITEGIC>MOL_PROPERTY
W(PB)
SciTegic.value.DoubleValue
-4.373

@<SCITEGIC>MOL_PROPERTY
W(SA)
SciTegic.value.DoubleValue
2.015

@<SCITEGIC>MOL_PROPERTY
Valence
SciTegic.value.DoubleValue
13.328

@<SCITEGIC>MOL_PROPERTY
Coulomb
SciTegic.value.DoubleValue
-8.387

@<SCITEGIC>MOL_PROPERTY
VdW
SciTegic.value.DoubleValue
3.840

@<SCITEGIC>MOL_PROPERTY
VdW6
SciTegic.value.DoubleValue
-9.744

@<SCITEGIC>MOL_PROPERTY
VdW12
SciTegic.value.DoubleValue
13.584

@<SCITEGIC>MOL_PROPERTY
Bond
SciTegic.value.DoubleValue
0.436

@<SCITEGIC>MOL_PROPERTY
Angle
SciTegic.value.DoubleValue
3.478

@<SCITEGIC>MOL_PROPERTY
Pdih
SciTegic.value.DoubleValue
9.415

@<SCITEGIC>MOL_PROPERTY
Idih
SciTegic.value.DoubleValue
0.000

@<SCITEGIC>MOL_PROPERTY
Tether
SciTegic.value.DoubleValue
0.000

@<TRIPOS>MOLECULE
guest-5_confgen4.mol2 : confsearch ligand conformer 570
          22          22           1
SMALL
USER_CHARGES
 
@<TRIPOS>ATOM
       1    C1      21.278741   20.327027   23.591611 C.3        1 MOL1        -0.1685
       2    H1      21.395134   21.084473   22.804632 H          1 MOL1         0.0832
       3    H2      21.993317   20.597146   24.381118 H          1 MOL1         0.0832
       4    C2      21.664993   18.922178   23.069247 C.3        1 MOL1        -0.1685
       5    H3      22.748162   18.902227   22.887037 H          1 MOL1         0.0832
       6    H4      21.481027   18.177858   23.856028 H          1 MOL1         0.0832
       7    C3      20.949584   18.481663   21.771377 C.3        1 MOL1        -0.1685
       8    H5      21.255261   17.451108   21.544784 H          1 MOL1         0.0832
       9    H6      21.308722   19.092155   20.931568 H          1 MOL1         0.0832
      10    C4      19.403269   18.537876   21.825509 C.3        1 MOL1        -0.1761
      11    H7      19.020542   17.992639   20.952743 H          1 MOL1         0.0832
      12    H8      19.027029   18.004380   22.708018 H          1 MOL1         0.0832
      13    C5      18.857389   19.983075   21.793182 C.3        1 MOL1         0.1218
      14    H9      19.537751   20.594387   21.183060 H          1 MOL1         0.0789
      15    C6      18.720516   20.648807   23.181477 C.3        1 MOL1        -0.1761
      16    H10     18.644027   21.732288   23.023151 H          1 MOL1         0.0832
      17    H11     17.769643   20.343819   23.638568 H          1 MOL1         0.0832
      18    C7      19.856724   20.373648   24.198023 C.3        1 MOL1        -0.1685
      19    H12     19.822062   21.158067   24.966339 H          1 MOL1         0.0832
      20    H13     19.655084   19.433265   24.728806 H          1 MOL1         0.0832
      21    O1      17.574003   19.974690   21.179940 O.3        1 MOL1        -0.5509
      22    H14     17.696076   19.619733   20.274555 H          1 MOL1         0.3779
@<TRIPOS>BOND
    1     1     2    1
    2     1     3    1
    3     1     4    1
    4     4     5    1
    5     4     6    1
    6     4     7    1
    7     7     8    1
    8     7     9    1
    9     7    10    1
   10    10    11    1
   11    10    12    1
   12    10    13    1
   13    13    14    1
   14    13    15    1
   15    15    16    1
   16    15    17    1
   17     1    18    1
   18    15    18    1
   19    18    19    1
   20    18    20    1
   21    13    21    1
   22    21    22    1
@<TRIPOS>SUBSTRUCTURE
       1 MOL1            1 RESIDUE      1      MOL     
@<SCITEGIC>MOL_PROPERTY
VConf Rank
SciTegic.value.IntegerValue
570

@<SCITEGIC>MOL_PROPERTY
Conf_Id
SciTegic.value.IntegerValue
144

@<SCITEGIC>MOL_PROPERTY
Delta U+W
SciTegic.value.DoubleValue
-3.291

@<SCITEGIC>MOL_PROPERTY
U+W
SciTegic.value.DoubleValue
3.132

@<SCITEGIC>MOL_PROPERTY
Grad RMS
SciTegic.value.DoubleValue
0.000000

@<SCITEGIC>MOL_PROPERTY
U
SciTegic.value.DoubleValue
5.411

@<SCITEGIC>MOL_PROPERTY
W
SciTegic.value.DoubleValue
-2.279

@<SCITEGIC>MOL_PROPERTY
W(PB)
SciTegic.value.DoubleValue
-4.300

@<SCITEGIC>MOL_PROPERTY
W(SA)
SciTegic.value.DoubleValue
2.021

@<SCITEGIC>MOL_PROPERTY
Valence
SciTegic.value.DoubleValue
11.909

@<SCITEGIC>MOL_PROPERTY
Coulomb
SciTegic.value.DoubleValue
-8.733

@<SCITEGIC>MOL_PROPERTY
VdW
SciTegic.value.DoubleValue
2.236

@<SCITEGIC>MOL_PROPERTY
VdW6
SciTegic.value.DoubleValue
-8.936

@<SCITEGIC>MOL_PROPERTY
VdW12
SciTegic.value.DoubleValue
11.172

@<SCITEGIC>MOL_PROPERTY
Bond
SciTegic.value.DoubleValue
0.223

@<SCITEGIC>MOL_PROPERTY
Angle
SciTegic.value.DoubleValue
2.457

@<SCITEGIC>MOL_PROPERTY
Pdih
SciTegic.value.DoubleValue
9.228

@<SCITEGIC>MOL_PROPERTY
Idih
SciTegic.value.DoubleValue
0.000

@<SCITEGIC>MOL_PROPERTY
Tether
SciTegic.value.DoubleValue
0.000

@<TRIPOS>MOLECULE
guest-5_confgen4.mol2 : confsearch ligand conformer 571
          22          22           1
SMALL
USER_CHARGES
 
@<TRIPOS>ATOM
       1    C1      21.636198   19.306154   22.907258 C.3        1 MOL1        -0.1685
       2    H1      22.713793   19.445360   23.069434 H          1 MOL1         0.0832
       3    H2      21.468548   18.220607   22.894479 H          1 MOL1         0.0832
       4    C2      21.272599   19.936045   21.542301 C.3        1 MOL1        -0.1685
       5    H3      21.131168   21.018475   21.665251 H          1 MOL1         0.0832
       6    H4      22.128357   19.828048   20.861850 H          1 MOL1         0.0832
       7    C3      20.031335   19.325703   20.847558 C.3        1 MOL1        -0.1685
       8    H5      20.335987   18.423694   20.299396 H          1 MOL1         0.0832
       9    H6      19.682964   20.034975   20.084283 H          1 MOL1         0.0832
      10    C4      18.843410   18.952180   21.768132 C.3        1 MOL1        -0.1761
      11    H7      17.948114   18.856702   21.139006 H          1 MOL1         0.0832
      12    H8      19.016332   17.954937   22.192982 H          1 MOL1         0.0832
      13    C5      18.565540   19.953471   22.911723 C.3        1 MOL1         0.1218
      14    H9      18.790601   20.973941   22.570465 H          1 MOL1         0.0789
      15    C6      19.383482   19.640329   24.185257 C.3        1 MOL1        -0.1761
      16    H10     18.963273   20.213131   25.022785 H          1 MOL1         0.0832
      17    H11     19.259563   18.582004   24.449224 H          1 MOL1         0.0832
      18    C7      20.893035   19.966659   24.093190 C.3        1 MOL1        -0.1685
      19    H12     21.027797   21.055985   24.047000 H          1 MOL1         0.0832
      20    H13     21.371126   19.645541   25.028657 H          1 MOL1         0.0832
      21    O1      17.186887   19.875629   23.248573 O.3        1 MOL1        -0.5509
      22    H14     17.025962   18.956055   23.544623 H          1 MOL1         0.3779
@<TRIPOS>BOND
    1     1     2    1
    2     1     3    1
    3     1     4    1
    4     4     5    1
    5     4     6    1
    6     4     7    1
    7     7     8    1
    8     7     9    1
    9     7    10    1
   10    10    11    1
   11    10    12    1
   12    10    13    1
   13    13    14    1
   14    13    15    1
   15    15    16    1
   16    15    17    1
   17     1    18    1
   18    15    18    1
   19    18    19    1
   20    18    20    1
   21    13    21    1
   22    21    22    1
@<TRIPOS>SUBSTRUCTURE
       1 MOL1            1 RESIDUE      1      MOL     
@<SCITEGIC>MOL_PROPERTY
VConf Rank
SciTegic.value.IntegerValue
571

@<SCITEGIC>MOL_PROPERTY
Conf_Id
SciTegic.value.IntegerValue
76

@<SCITEGIC>MOL_PROPERTY
Delta U+W
SciTegic.value.DoubleValue
-3.175

@<SCITEGIC>MOL_PROPERTY
U+W
SciTegic.value.DoubleValue
3.248

@<SCITEGIC>MOL_PROPERTY
Grad RMS
SciTegic.value.DoubleValue
0.000000

@<SCITEGIC>MOL_PROPERTY
U
SciTegic.value.DoubleValue
5.336

@<SCITEGIC>MOL_PROPERTY
W
SciTegic.value.DoubleValue
-2.088

@<SCITEGIC>MOL_PROPERTY
W(PB)
SciTegic.value.DoubleValue
-4.098

@<SCITEGIC>MOL_PROPERTY
W(SA)
SciTegic.value.DoubleValue
2.010

@<SCITEGIC>MOL_PROPERTY
Valence
SciTegic.value.DoubleValue
12.390

@<SCITEGIC>MOL_PROPERTY
Coulomb
SciTegic.value.DoubleValue
-9.270

@<SCITEGIC>MOL_PROPERTY
VdW
SciTegic.value.DoubleValue
2.216

@<SCITEGIC>MOL_PROPERTY
VdW6
SciTegic.value.DoubleValue
-8.967

@<SCITEGIC>MOL_PROPERTY
VdW12
SciTegic.value.DoubleValue
11.183

@<SCITEGIC>MOL_PROPERTY
Bond
SciTegic.value.DoubleValue
0.218

@<SCITEGIC>MOL_PROPERTY
Angle
SciTegic.value.DoubleValue
2.426

@<SCITEGIC>MOL_PROPERTY
Pdih
SciTegic.value.DoubleValue
9.745

@<SCITEGIC>MOL_PROPERTY
Idih
SciTegic.value.DoubleValue
0.000

@<SCITEGIC>MOL_PROPERTY
Tether
SciTegic.value.DoubleValue
0.000

@<TRIPOS>MOLECULE
guest-5_confgen4.mol2 : confsearch ligand conformer 572
          22          22           1
SMALL
USER_CHARGES
 
@<TRIPOS>ATOM
       1    C1      20.546094   17.846974   22.085204 C.3        1 MOL1        -0.1685
       2    H1      20.874843   17.566051   21.075358 H          1 MOL1         0.0832
       3    H2      20.633241   16.935055   22.691524 H          1 MOL1         0.0832
       4    C2      19.056545   18.259941   22.011886 C.3        1 MOL1        -0.1685
       5    H3      18.868771   18.788745   21.067648 H          1 MOL1         0.0832
       6    H4      18.452513   17.343818   21.960425 H          1 MOL1         0.0832
       7    C3      18.558264   19.124294   23.193476 C.3        1 MOL1        -0.1685
       8    H5      19.018833   18.803224   24.137735 H          1 MOL1         0.0832
       9    H6      17.479048   18.955629   23.308091 H          1 MOL1         0.0832
      10    C4      18.776782   20.641028   22.961426 C.3        1 MOL1        -0.1761
      11    H7      18.370615   20.918072   21.980209 H          1 MOL1         0.0832
      12    H8      18.179195   21.197313   23.695491 H          1 MOL1         0.0832
      13    C5      20.235504   21.143301   23.056027 C.3        1 MOL1         0.1218
      14    H9      20.237850   22.180707   22.691499 H          1 MOL1         0.0789
      15    C6      21.260146   20.357154   22.200123 C.3        1 MOL1        -0.1761
      16    H10     20.951183   20.367939   21.146888 H          1 MOL1         0.0832
      17    H11     22.210518   20.905193   22.235245 H          1 MOL1         0.0832
      18    C7      21.523183   18.899776   22.660643 C.3        1 MOL1        -0.1685
      19    H12     22.540903   18.613213   22.363069 H          1 MOL1         0.0832
      20    H13     21.514430   18.843736   23.757102 H          1 MOL1         0.0832
      21    O1      20.641841   21.151896   24.420886 O.3        1 MOL1        -0.5509
      22    H14     21.581918   21.424750   24.430272 H          1 MOL1         0.3779
@<TRIPOS>BOND
    1     1     2    1
    2     1     3    1
    3     1     4    1
    4     4     5    1
    5     4     6    1
    6     4     7    1
    7     7     8    1
    8     7     9    1
    9     7    10    1
   10    10    11    1
   11    10    12    1
   12    10    13    1
   13    13    14    1
   14    13    15    1
   15    15    16    1
   16    15    17    1
   17     1    18    1
   18    15    18    1
   19    18    19    1
   20    18    20    1
   21    13    21    1
   22    21    22    1
@<TRIPOS>SUBSTRUCTURE
       1 MOL1            1 RESIDUE      1      MOL     
@<SCITEGIC>MOL_PROPERTY
VConf Rank
SciTegic.value.IntegerValue
572

@<SCITEGIC>MOL_PROPERTY
Conf_Id
SciTegic.value.IntegerValue
95

@<SCITEGIC>MOL_PROPERTY
Delta U+W
SciTegic.value.DoubleValue
-2.289

@<SCITEGIC>MOL_PROPERTY
U+W
SciTegic.value.DoubleValue
4.134

@<SCITEGIC>MOL_PROPERTY
Grad RMS
SciTegic.value.DoubleValue
0.000000

@<SCITEGIC>MOL_PROPERTY
U
SciTegic.value.DoubleValue
6.373

@<SCITEGIC>MOL_PROPERTY
W
SciTegic.value.DoubleValue
-2.240

@<SCITEGIC>MOL_PROPERTY
W(PB)
SciTegic.value.DoubleValue
-4.254

@<SCITEGIC>MOL_PROPERTY
W(SA)
SciTegic.value.DoubleValue
2.015

@<SCITEGIC>MOL_PROPERTY
Valence
SciTegic.value.DoubleValue
12.093

@<SCITEGIC>MOL_PROPERTY
Coulomb
SciTegic.value.DoubleValue
-8.058

@<SCITEGIC>MOL_PROPERTY
VdW
SciTegic.value.DoubleValue
2.339

@<SCITEGIC>MOL_PROPERTY
VdW6
SciTegic.value.DoubleValue
-9.683

@<SCITEGIC>MOL_PROPERTY
VdW12
SciTegic.value.DoubleValue
12.022

@<SCITEGIC>MOL_PROPERTY
Bond
SciTegic.value.DoubleValue
0.268

@<SCITEGIC>MOL_PROPERTY
Angle
SciTegic.value.DoubleValue
3.005

@<SCITEGIC>MOL_PROPERTY
Pdih
SciTegic.value.DoubleValue
8.820

@<SCITEGIC>MOL_PROPERTY
Idih
SciTegic.value.DoubleValue
0.000

@<SCITEGIC>MOL_PROPERTY
Tether
SciTegic.value.DoubleValue
0.000

@<TRIPOS>MOLECULE
guest-5_confgen4.mol2 : confsearch ligand conformer 573
          22          22           1
SMALL
USER_CHARGES
 
@<TRIPOS>ATOM
       1    C1      19.123459   18.681697   24.088072 C.3        1 MOL1        -0.1685
       2    H1      19.168198   18.855200   25.171885 H          1 MOL1         0.0832
       3    H2      18.400906   17.866438   23.946435 H          1 MOL1         0.0832
       4    C2      20.517396   18.203179   23.616599 C.3        1 MOL1        -0.1685
       5    H3      21.296213   18.722719   24.191057 H          1 MOL1         0.0832
       6    H4      20.618358   17.141307   23.879344 H          1 MOL1         0.0832
       7    C3      20.792296   18.374588   22.104459 C.3        1 MOL1        -0.1685
       8    H5      19.888366   18.169666   21.514768 H          1 MOL1         0.0832
       9    H6      21.529910   17.617911   21.804808 H          1 MOL1         0.0832
      10    C4      21.376725   19.767204   21.757512 C.3        1 MOL1        -0.1761
      11    H7      22.224660   19.976413   22.422444 H          1 MOL1         0.0832
      12    H8      21.802714   19.727110   20.746617 H          1 MOL1         0.0832
      13    C5      20.391124   20.956287   21.823905 C.3        1 MOL1         0.1218
      14    H9      20.991554   21.872307   21.726478 H          1 MOL1         0.0789
      15    C6      19.592207   21.075434   23.145974 C.3        1 MOL1        -0.1761
      16    H10     20.282875   21.150624   23.995570 H          1 MOL1         0.0832
      17    H11     19.051924   22.030348   23.113379 H          1 MOL1         0.0832
      18    C7      18.559413   19.945845   23.396585 C.3        1 MOL1        -0.1685
      19    H12     17.750029   20.341250   24.024892 H          1 MOL1         0.0832
      20    H13     18.079555   19.662278   22.450569 H          1 MOL1         0.0832
      21    O1      19.497773   20.891586   20.716371 O.3        1 MOL1        -0.5509
      22    H14     20.050681   20.800426   19.913770 H          1 MOL1         0.3779
@<TRIPOS>BOND
    1     1     2    1
    2     1     3    1
    3     1     4    1
    4     4     5    1
    5     4     6    1
    6     4     7    1
    7     7     8    1
    8     7     9    1
    9     7    10    1
   10    10    11    1
   11    10    12    1
   12    10    13    1
   13    13    14    1
   14    13    15    1
   15    15    16    1
   16    15    17    1
   17     1    18    1
   18    15    18    1
   19    18    19    1
   20    18    20    1
   21    13    21    1
   22    21    22    1
@<TRIPOS>SUBSTRUCTURE
       1 MOL1            1 RESIDUE      1      MOL     
@<SCITEGIC>MOL_PROPERTY
VConf Rank
SciTegic.value.IntegerValue
573

@<SCITEGIC>MOL_PROPERTY
Conf_Id
SciTegic.value.IntegerValue
41

@<SCITEGIC>MOL_PROPERTY
Delta U+W
SciTegic.value.DoubleValue
-2.114

@<SCITEGIC>MOL_PROPERTY
U+W
SciTegic.value.DoubleValue
4.310

@<SCITEGIC>MOL_PROPERTY
Grad RMS
SciTegic.value.DoubleValue
0.000000

@<SCITEGIC>MOL_PROPERTY
U
SciTegic.value.DoubleValue
6.598

@<SCITEGIC>MOL_PROPERTY
W
SciTegic.value.DoubleValue
-2.289

@<SCITEGIC>MOL_PROPERTY
W(PB)
SciTegic.value.DoubleValue
-4.294

@<SCITEGIC>MOL_PROPERTY
W(SA)
SciTegic.value.DoubleValue
2.005

@<SCITEGIC>MOL_PROPERTY
Valence
SciTegic.value.DoubleValue
12.082

@<SCITEGIC>MOL_PROPERTY
Coulomb
SciTegic.value.DoubleValue
-7.801

@<SCITEGIC>MOL_PROPERTY
VdW
SciTegic.value.DoubleValue
2.317

@<SCITEGIC>MOL_PROPERTY
VdW6
SciTegic.value.DoubleValue
-9.658

@<SCITEGIC>MOL_PROPERTY
VdW12
SciTegic.value.DoubleValue
11.975

@<SCITEGIC>MOL_PROPERTY
Bond
SciTegic.value.DoubleValue
0.267

@<SCITEGIC>MOL_PROPERTY
Angle
SciTegic.value.DoubleValue
3.051

@<SCITEGIC>MOL_PROPERTY
Pdih
SciTegic.value.DoubleValue
8.764

@<SCITEGIC>MOL_PROPERTY
Idih
SciTegic.value.DoubleValue
0.000

@<SCITEGIC>MOL_PROPERTY
Tether
SciTegic.value.DoubleValue
0.000

@<TRIPOS>MOLECULE
guest-5_confgen4.mol2 : confsearch ligand conformer 574
          22          22           1
SMALL
USER_CHARGES
 
@<TRIPOS>ATOM
       1    C1      18.455652   19.710096   23.015197 C.3        1 MOL1        -0.1685
       2    H1      17.381546   19.562835   23.191718 H          1 MOL1         0.0832
       3    H2      18.698454   20.707112   23.407857 H          1 MOL1         0.0832
       4    C2      18.697976   19.649395   21.490408 C.3        1 MOL1        -0.1685
       5    H3      18.509576   18.629486   21.128647 H          1 MOL1         0.0832
       6    H4      17.956066   20.287644   20.991643 H          1 MOL1         0.0832
       7    C3      20.104847   20.103118   21.043115 C.3        1 MOL1        -0.1685
       8    H5      20.212717   21.182274   21.215383 H          1 MOL1         0.0832
       9    H6      20.172911   19.970917   19.954990 H          1 MOL1         0.0832
      10    C4      21.285160   19.339470   21.702577 C.3        1 MOL1        -0.1761
      11    H7      21.138584   18.256923   21.598334 H          1 MOL1         0.0832
      12    H8      22.192277   19.572086   21.130204 H          1 MOL1         0.0832
      13    C5      21.577651   19.690570   23.184201 C.3        1 MOL1         0.1218
      14    H9      22.594627   19.331266   23.398533 H          1 MOL1         0.0789
      15    C6      20.653508   19.020112   24.233765 C.3        1 MOL1        -0.1761
      16    H10     21.154938   18.113453   24.596532 H          1 MOL1         0.0832
      17    H11     20.573756   19.675656   25.110905 H          1 MOL1         0.0832
      18    C7      19.226897   18.616054   23.786087 C.3        1 MOL1        -0.1685
      19    H12     19.270678   17.698128   23.184498 H          1 MOL1         0.0832
      20    H13     18.655143   18.351186   24.685876 H          1 MOL1         0.0832
      21    O1      21.571207   21.103201   23.372227 O.3        1 MOL1        -0.5509
      22    H14     21.799715   21.264648   24.310111 H          1 MOL1         0.3779
@<TRIPOS>BOND
    1     1     2    1
    2     1     3    1
    3     1     4    1
    4     4     5    1
    5     4     6    1
    6     4     7    1
    7     7     8    1
    8     7     9    1
    9     7    10    1
   10    10    11    1
   11    10    12    1
   12    10    13    1
   13    13    14    1
   14    13    15    1
   15    15    16    1
   16    15    17    1
   17     1    18    1
   18    15    18    1
   19    18    19    1
   20    18    20    1
   21    13    21    1
   22    21    22    1
@<TRIPOS>SUBSTRUCTURE
       1 MOL1            1 RESIDUE      1      MOL     
@<SCITEGIC>MOL_PROPERTY
VConf Rank
SciTegic.value.IntegerValue
574

@<SCITEGIC>MOL_PROPERTY
Conf_Id
SciTegic.value.IntegerValue
104

@<SCITEGIC>MOL_PROPERTY
Delta U+W
SciTegic.value.DoubleValue
-1.172

@<SCITEGIC>MOL_PROPERTY
U+W
SciTegic.value.DoubleValue
5.252

@<SCITEGIC>MOL_PROPERTY
Grad RMS
SciTegic.value.DoubleValue
0.000000

@<SCITEGIC>MOL_PROPERTY
U
SciTegic.value.DoubleValue
7.482

@<SCITEGIC>MOL_PROPERTY
W
SciTegic.value.DoubleValue
-2.230

@<SCITEGIC>MOL_PROPERTY
W(PB)
SciTegic.value.DoubleValue
-4.220

@<SCITEGIC>MOL_PROPERTY
W(SA)
SciTegic.value.DoubleValue
1.990

@<SCITEGIC>MOL_PROPERTY
Valence
SciTegic.value.DoubleValue
12.309

@<SCITEGIC>MOL_PROPERTY
Coulomb
SciTegic.value.DoubleValue
-7.084

@<SCITEGIC>MOL_PROPERTY
VdW
SciTegic.value.DoubleValue
2.258

@<SCITEGIC>MOL_PROPERTY
VdW6
SciTegic.value.DoubleValue
-9.770

@<SCITEGIC>MOL_PROPERTY
VdW12
SciTegic.value.DoubleValue
12.028

@<SCITEGIC>MOL_PROPERTY
Bond
SciTegic.value.DoubleValue
0.284

@<SCITEGIC>MOL_PROPERTY
Angle
SciTegic.value.DoubleValue
3.491

@<SCITEGIC>MOL_PROPERTY
Pdih
SciTegic.value.DoubleValue
8.535

@<SCITEGIC>MOL_PROPERTY
Idih
SciTegic.value.DoubleValue
0.000

@<SCITEGIC>MOL_PROPERTY
Tether
SciTegic.value.DoubleValue
0.000

@<TRIPOS>MOLECULE
guest-5_confgen4.mol2 : confsearch ligand conformer 575
          22          22           1
SMALL
USER_CHARGES
 
@<TRIPOS>ATOM
       1    C1      20.706592   19.745299   24.174891 C.3        1 MOL1        -0.1685
       2    H1      19.799477   20.211665   24.582480 H          1 MOL1         0.0832
       3    H2      21.429009   19.715929   25.002049 H          1 MOL1         0.0832
       4    C2      21.313777   20.611158   23.047460 C.3        1 MOL1        -0.1685
       5    H3      21.877509   21.436199   23.504366 H          1 MOL1         0.0832
       6    H4      22.063235   20.023551   22.501230 H          1 MOL1         0.0832
       7    C3      20.297586   21.227823   22.053098 C.3        1 MOL1        -0.1685
       8    H5      20.812273   21.413503   21.100242 H          1 MOL1         0.0832
       9    H6      20.006228   22.219794   22.424628 H          1 MOL1         0.0832
      10    C4      18.994118   20.429049   21.780826 C.3        1 MOL1        -0.1761
      11    H7      18.295569   20.587909   22.612540 H          1 MOL1         0.0832
      12    H8      18.502851   20.870893   20.904223 H          1 MOL1         0.0832
      13    C5      19.137317   18.909304   21.536184 C.3        1 MOL1         0.1218
      14    H9      18.243154   18.580818   20.987138 H          1 MOL1         0.0789
      15    C6      19.182008   18.091948   22.846986 C.3        1 MOL1        -0.1761
      16    H10     18.284725   18.322546   23.435856 H          1 MOL1         0.0832
      17    H11     19.101011   17.027800   22.589549 H          1 MOL1         0.0832
      18    C7      20.432156   18.285852   23.740474 C.3        1 MOL1        -0.1685
      19    H12     20.297127   17.676581   24.644502 H          1 MOL1         0.0832
      20    H13     21.317300   17.874225   23.236925 H          1 MOL1         0.0832
      21    O1      20.287240   18.636948   20.750266 O.3        1 MOL1        -0.5509
      22    H14     21.023447   19.028727   21.260947 H          1 MOL1         0.3779
@<TRIPOS>BOND
    1     1     2    1
    2     1     3    1
    3     1     4    1
    4     4     5    1
    5     4     6    1
    6     4     7    1
    7     7     8    1
    8     7     9    1
    9     7    10    1
   10    10    11    1
   11    10    12    1
   12    10    13    1
   13    13    14    1
   14    13    15    1
   15    15    16    1
   16    15    17    1
   17     1    18    1
   18    15    18    1
   19    18    19    1
   20    18    20    1
   21    13    21    1
   22    21    22    1
@<TRIPOS>SUBSTRUCTURE
       1 MOL1            1 RESIDUE      1      MOL     
@<SCITEGIC>MOL_PROPERTY
VConf Rank
SciTegic.value.IntegerValue
575

@<SCITEGIC>MOL_PROPERTY
Conf_Id
SciTegic.value.IntegerValue
99

@<SCITEGIC>MOL_PROPERTY
Delta U+W
SciTegic.value.DoubleValue
-3.852

@<SCITEGIC>MOL_PROPERTY
U+W
SciTegic.value.DoubleValue
2.572

@<SCITEGIC>MOL_PROPERTY
Grad RMS
SciTegic.value.DoubleValue
0.000000

@<SCITEGIC>MOL_PROPERTY
U
SciTegic.value.DoubleValue
3.922

@<SCITEGIC>MOL_PROPERTY
W
SciTegic.value.DoubleValue
-1.350

@<SCITEGIC>MOL_PROPERTY
W(PB)
SciTegic.value.DoubleValue
-3.345

@<SCITEGIC>MOL_PROPERTY
W(SA)
SciTegic.value.DoubleValue
1.995

@<SCITEGIC>MOL_PROPERTY
Valence
SciTegic.value.DoubleValue
12.571

@<SCITEGIC>MOL_PROPERTY
Coulomb
SciTegic.value.DoubleValue
-10.581

@<SCITEGIC>MOL_PROPERTY
VdW
SciTegic.value.DoubleValue
1.932

@<SCITEGIC>MOL_PROPERTY
VdW6
SciTegic.value.DoubleValue
-10.483

@<SCITEGIC>MOL_PROPERTY
VdW12
SciTegic.value.DoubleValue
12.415

@<SCITEGIC>MOL_PROPERTY
Bond
SciTegic.value.DoubleValue
0.268

@<SCITEGIC>MOL_PROPERTY
Angle
SciTegic.value.DoubleValue
3.728

@<SCITEGIC>MOL_PROPERTY
Pdih
SciTegic.value.DoubleValue
8.575

@<SCITEGIC>MOL_PROPERTY
Idih
SciTegic.value.DoubleValue
0.000

@<SCITEGIC>MOL_PROPERTY
Tether
SciTegic.value.DoubleValue
0.000

@<TRIPOS>MOLECULE
guest-5_confgen4.mol2 : confsearch ligand conformer 576
          22          22           1
SMALL
USER_CHARGES
 
@<TRIPOS>ATOM
       1    C1      19.429053   19.539941   21.140810 C.3        1 MOL1        -0.1685
       2    H1      19.385509   19.878274   20.096336 H          1 MOL1         0.0832
       3    H2      18.666863   18.752820   21.215393 H          1 MOL1         0.0832
       4    C2      19.046447   20.744963   22.049318 C.3        1 MOL1        -0.1685
       5    H3      18.837140   21.604819   21.398066 H          1 MOL1         0.0832
       6    H4      18.098348   20.543555   22.565649 H          1 MOL1         0.0832
       7    C3      20.116439   21.183783   23.081453 C.3        1 MOL1        -0.1685
       8    H5      19.807534   22.145575   23.513032 H          1 MOL1         0.0832
       9    H6      21.059860   21.403180   22.566291 H          1 MOL1         0.0832
      10    C4      20.376177   20.198096   24.254392 C.3        1 MOL1        -0.1761
      11    H7      21.373080   20.406898   24.663450 H          1 MOL1         0.0832
      12    H8      19.674664   20.432499   25.066137 H          1 MOL1         0.0832
      13    C5      20.270986   18.679264   23.971119 C.3        1 MOL1         0.1218
      14    H9      20.703089   18.161731   24.839578 H          1 MOL1         0.0789
      15    C6      21.022245   18.162055   22.719621 C.3        1 MOL1        -0.1761
      16    H10     22.095489   18.129983   22.947347 H          1 MOL1         0.0832
      17    H11     20.727025   17.115573   22.565615 H          1 MOL1         0.0832
      18    C7      20.832692   18.927534   21.380624 C.3        1 MOL1        -0.1685
      19    H12     21.597964   19.708239   21.288833 H          1 MOL1         0.0832
      20    H13     21.050790   18.229572   20.560863 H          1 MOL1         0.0832
      21    O1      18.905115   18.302431   23.896034 O.3        1 MOL1        -0.5509
      22    H14     18.569360   18.785115   23.114230 H          1 MOL1         0.3779
@<TRIPOS>BOND
    1     1     2    1
    2     1     3    1
    3     1     4    1
    4     4     5    1
    5     4     6    1
    6     4     7    1
    7     7     8    1
    8     7     9    1
    9     7    10    1
   10    10    11    1
   11    10    12    1
   12    10    13    1
   13    13    14    1
   14    13    15    1
   15    15    16    1
   16    15    17    1
   17     1    18    1
   18    15    18    1
   19    18    19    1
   20    18    20    1
   21    13    21    1
   22    21    22    1
@<TRIPOS>SUBSTRUCTURE
       1 MOL1            1 RESIDUE      1      MOL     
@<SCITEGIC>MOL_PROPERTY
VConf Rank
SciTegic.value.IntegerValue
576

@<SCITEGIC>MOL_PROPERTY
Conf_Id
SciTegic.value.IntegerValue
98

@<SCITEGIC>MOL_PROPERTY
Delta U+W
SciTegic.value.DoubleValue
0.930

@<SCITEGIC>MOL_PROPERTY
U+W
SciTegic.value.DoubleValue
7.353

@<SCITEGIC>MOL_PROPERTY
Grad RMS
SciTegic.value.DoubleValue
0.000000

@<SCITEGIC>MOL_PROPERTY
U
SciTegic.value.DoubleValue
8.455

@<SCITEGIC>MOL_PROPERTY
W
SciTegic.value.DoubleValue
-1.102

@<SCITEGIC>MOL_PROPERTY
W(PB)
SciTegic.value.DoubleValue
-3.101

@<SCITEGIC>MOL_PROPERTY
W(SA)
SciTegic.value.DoubleValue
2.000

@<SCITEGIC>MOL_PROPERTY
Valence
SciTegic.value.DoubleValue
15.601

@<SCITEGIC>MOL_PROPERTY
Coulomb
SciTegic.value.DoubleValue
-10.573

@<SCITEGIC>MOL_PROPERTY
VdW
SciTegic.value.DoubleValue
3.427

@<SCITEGIC>MOL_PROPERTY
VdW6
SciTegic.value.DoubleValue
-11.360

@<SCITEGIC>MOL_PROPERTY
VdW12
SciTegic.value.DoubleValue
14.787

@<SCITEGIC>MOL_PROPERTY
Bond
SciTegic.value.DoubleValue
0.471

@<SCITEGIC>MOL_PROPERTY
Angle
SciTegic.value.DoubleValue
5.445

@<SCITEGIC>MOL_PROPERTY
Pdih
SciTegic.value.DoubleValue
9.685

@<SCITEGIC>MOL_PROPERTY
Idih
SciTegic.value.DoubleValue
0.000

@<SCITEGIC>MOL_PROPERTY
Tether
SciTegic.value.DoubleValue
0.000

@<TRIPOS>MOLECULE
guest-5_confgen4.mol2 : confsearch ligand conformer 577
          22          22           1
SMALL
USER_CHARGES
 
@<TRIPOS>ATOM
       1    C1      18.569333   19.801952   21.765990 C.3        1 MOL1        -0.1685
       2    H1      18.231460   20.425444   22.603772 H          1 MOL1         0.0832
       3    H2      17.771956   19.878022   21.014248 H          1 MOL1         0.0832
       4    C2      18.677547   18.324792   22.222552 C.3        1 MOL1        -0.1685
       5    H3      17.683751   18.013082   22.571955 H          1 MOL1         0.0832
       6    H4      18.901586   17.687645   21.356254 H          1 MOL1         0.0832
       7    C3      19.702143   18.028744   23.352686 C.3        1 MOL1        -0.1685
       8    H5      20.603901   17.565792   22.931349 H          1 MOL1         0.0832
       9    H6      19.272723   17.262351   24.012136 H          1 MOL1         0.0832
      10    C4      20.104462   19.255895   24.212889 C.3        1 MOL1        -0.1761
      11    H7      19.196933   19.751950   24.578878 H          1 MOL1         0.0832
      12    H8      20.610746   18.892134   25.117179 H          1 MOL1         0.0832
      13    C5      21.015285   20.307318   23.513760 C.3        1 MOL1         0.1218
      14    H9      20.606919   21.305443   23.728354 H          1 MOL1         0.0789
      15    C6      21.158883   20.164103   21.977815 C.3        1 MOL1        -0.1761
      16    H10     21.913735   20.877933   21.623272 H          1 MOL1         0.0832
      17    H11     21.565940   19.175001   21.735801 H          1 MOL1         0.0832
      18    C7      19.862028   20.401770   21.164494 C.3        1 MOL1        -0.1685
      19    H12     19.712189   21.483188   21.042443 H          1 MOL1         0.0832
      20    H13     20.007763   20.001613   20.151920 H          1 MOL1         0.0832
      21    O1      22.320226   20.216802   24.074219 O.3        1 MOL1        -0.5509
      22    H14     22.855744   20.924828   23.659371 H          1 MOL1         0.3779
@<TRIPOS>BOND
    1     1     2    1
    2     1     3    1
    3     1     4    1
    4     4     5    1
    5     4     6    1
    6     4     7    1
    7     7     8    1
    8     7     9    1
    9     7    10    1
   10    10    11    1
   11    10    12    1
   12    10    13    1
   13    13    14    1
   14    13    15    1
   15    15    16    1
   16    15    17    1
   17     1    18    1
   18    15    18    1
   19    18    19    1
   20    18    20    1
   21    13    21    1
   22    21    22    1
@<TRIPOS>SUBSTRUCTURE
       1 MOL1            1 RESIDUE      1      MOL     
@<SCITEGIC>MOL_PROPERTY
VConf Rank
SciTegic.value.IntegerValue
577

@<SCITEGIC>MOL_PROPERTY
Conf_Id
SciTegic.value.IntegerValue
141

@<SCITEGIC>MOL_PROPERTY
Delta U+W
SciTegic.value.DoubleValue
0.000

@<SCITEGIC>MOL_PROPERTY
U+W
SciTegic.value.DoubleValue
6.423

@<SCITEGIC>MOL_PROPERTY
Grad RMS
SciTegic.value.DoubleValue
0.000000

@<SCITEGIC>MOL_PROPERTY
U
SciTegic.value.DoubleValue
8.781

@<SCITEGIC>MOL_PROPERTY
W
SciTegic.value.DoubleValue
-2.358

@<SCITEGIC>MOL_PROPERTY
W(PB)
SciTegic.value.DoubleValue
-4.373

@<SCITEGIC>MOL_PROPERTY
W(SA)
SciTegic.value.DoubleValue
2.015

@<SCITEGIC>MOL_PROPERTY
Valence
SciTegic.value.DoubleValue
13.328

@<SCITEGIC>MOL_PROPERTY
Coulomb
SciTegic.value.DoubleValue
-8.387

@<SCITEGIC>MOL_PROPERTY
VdW
SciTegic.value.DoubleValue
3.840

@<SCITEGIC>MOL_PROPERTY
VdW6
SciTegic.value.DoubleValue
-9.744

@<SCITEGIC>MOL_PROPERTY
VdW12
SciTegic.value.DoubleValue
13.584

@<SCITEGIC>MOL_PROPERTY
Bond
SciTegic.value.DoubleValue
0.436

@<SCITEGIC>MOL_PROPERTY
Angle
SciTegic.value.DoubleValue
3.478

@<SCITEGIC>MOL_PROPERTY
Pdih
SciTegic.value.DoubleValue
9.415

@<SCITEGIC>MOL_PROPERTY
Idih
SciTegic.value.DoubleValue
0.000

@<SCITEGIC>MOL_PROPERTY
Tether
SciTegic.value.DoubleValue
0.000

@<TRIPOS>MOLECULE
guest-5_confgen4.mol2 : confsearch ligand conformer 578
          22          22           1
SMALL
USER_CHARGES
 
@<TRIPOS>ATOM
       1    C1      20.724868   18.160572   22.019836 C.3        1 MOL1        -0.1685
       2    H1      21.389442   18.793868   21.416606 H          1 MOL1         0.0832
       3    H2      21.037499   17.124706   21.829708 H          1 MOL1         0.0832
       4    C2      19.255077   18.300274   21.555237 C.3        1 MOL1        -0.1685
       5    H3      19.159459   17.851491   20.557085 H          1 MOL1         0.0832
       6    H4      18.607070   17.705271   22.213217 H          1 MOL1         0.0832
       7    C3      18.720526   19.749318   21.485551 C.3        1 MOL1        -0.1685
       8    H5      17.657400   19.709292   21.211713 H          1 MOL1         0.0832
       9    H6      19.220909   20.283811   20.666470 H          1 MOL1         0.0832
      10    C4      18.863209   20.562793   22.795161 C.3        1 MOL1        -0.1761
      11    H7      18.251257   21.468492   22.691676 H          1 MOL1         0.0832
      12    H8      18.444626   20.006698   23.644010 H          1 MOL1         0.0832
      13    C5      20.323932   20.974725   23.085381 C.3        1 MOL1         0.1218
      14    H9      20.832077   21.140702   22.124608 H          1 MOL1         0.0789
      15    C6      21.136327   19.934862   23.890361 C.3        1 MOL1        -0.1761
      16    H10     22.200059   20.171097   23.758005 H          1 MOL1         0.0832
      17    H11     20.930769   20.063314   24.961508 H          1 MOL1         0.0832
      18    C7      20.908774   18.445727   23.528779 C.3        1 MOL1        -0.1685
      19    H12     21.769380   17.871451   23.898086 H          1 MOL1         0.0832
      20    H13     20.040411   18.061989   24.081409 H          1 MOL1         0.0832
      21    O1      20.319425   22.193746   23.818310 O.3        1 MOL1        -0.5509
      22    H14     19.866560   22.858309   23.258054 H          1 MOL1         0.3779
@<TRIPOS>BOND
    1     1     2    1
    2     1     3    1
    3     1     4    1
    4     4     5    1
    5     4     6    1
    6     4     7    1
    7     7     8    1
    8     7     9    1
    9     7    10    1
   10    10    11    1
   11    10    12    1
   12    10    13    1
   13    13    14    1
   14    13    15    1
   15    15    16    1
   16    15    17    1
   17     1    18    1
   18    15    18    1
   19    18    19    1
   20    18    20    1
   21    13    21    1
   22    21    22    1
@<TRIPOS>SUBSTRUCTURE
       1 MOL1            1 RESIDUE      1      MOL     
@<SCITEGIC>MOL_PROPERTY
VConf Rank
SciTegic.value.IntegerValue
578

@<SCITEGIC>MOL_PROPERTY
Conf_Id
SciTegic.value.IntegerValue
144

@<SCITEGIC>MOL_PROPERTY
Delta U+W
SciTegic.value.DoubleValue
-3.291

@<SCITEGIC>MOL_PROPERTY
U+W
SciTegic.value.DoubleValue
3.132

@<SCITEGIC>MOL_PROPERTY
Grad RMS
SciTegic.value.DoubleValue
0.000000

@<SCITEGIC>MOL_PROPERTY
U
SciTegic.value.DoubleValue
5.411

@<SCITEGIC>MOL_PROPERTY
W
SciTegic.value.DoubleValue
-2.279

@<SCITEGIC>MOL_PROPERTY
W(PB)
SciTegic.value.DoubleValue
-4.300

@<SCITEGIC>MOL_PROPERTY
W(SA)
SciTegic.value.DoubleValue
2.021

@<SCITEGIC>MOL_PROPERTY
Valence
SciTegic.value.DoubleValue
11.909

@<SCITEGIC>MOL_PROPERTY
Coulomb
SciTegic.value.DoubleValue
-8.733

@<SCITEGIC>MOL_PROPERTY
VdW
SciTegic.value.DoubleValue
2.236

@<SCITEGIC>MOL_PROPERTY
VdW6
SciTegic.value.DoubleValue
-8.936

@<SCITEGIC>MOL_PROPERTY
VdW12
SciTegic.value.DoubleValue
11.172

@<SCITEGIC>MOL_PROPERTY
Bond
SciTegic.value.DoubleValue
0.223

@<SCITEGIC>MOL_PROPERTY
Angle
SciTegic.value.DoubleValue
2.457

@<SCITEGIC>MOL_PROPERTY
Pdih
SciTegic.value.DoubleValue
9.228

@<SCITEGIC>MOL_PROPERTY
Idih
SciTegic.value.DoubleValue
0.000

@<SCITEGIC>MOL_PROPERTY
Tether
SciTegic.value.DoubleValue
0.000

@<TRIPOS>MOLECULE
guest-5_confgen4.mol2 : confsearch ligand conformer 579
          22          22           1
SMALL
USER_CHARGES
 
@<TRIPOS>ATOM
       1    C1      21.463961   18.763006   22.416630 C.3        1 MOL1        -0.1685
       2    H1      22.495768   18.516672   22.131002 H          1 MOL1         0.0832
       3    H2      21.081983   17.888129   22.960105 H          1 MOL1         0.0832
       4    C2      20.653716   19.004169   21.121478 C.3        1 MOL1        -0.1685
       5    H3      20.820154   20.032324   20.772238 H          1 MOL1         0.0832
       6    H4      21.051750   18.357310   20.327664 H          1 MOL1         0.0832
       7    C3      19.133909   18.734991   21.238324 C.3        1 MOL1        -0.1685
       8    H5      18.949535   17.660825   21.100163 H          1 MOL1         0.0832
       9    H6      18.632302   19.234077   20.397894 H          1 MOL1         0.0832
      10    C4      18.458474   19.173848   22.560947 C.3        1 MOL1        -0.1761
      11    H7      17.376623   19.235347   22.381259 H          1 MOL1         0.0832
      12    H8      18.590955   18.384799   23.312441 H          1 MOL1         0.0832
      13    C5      18.962781   20.516571   23.135719 C.3        1 MOL1         0.1218
      14    H9      19.216324   21.198039   22.311227 H          1 MOL1         0.0789
      15    C6      20.189188   20.342136   24.060098 C.3        1 MOL1        -0.1761
      16    H10     20.337826   21.271383   24.626259 H          1 MOL1         0.0832
      17    H11     19.978780   19.563601   24.804878 H          1 MOL1         0.0832
      18    C7      21.514827   20.006596   23.336352 C.3        1 MOL1        -0.1685
      19    H12     21.842017   20.878369   22.753356 H          1 MOL1         0.0832
      20    H13     22.290649   19.847643   24.097680 H          1 MOL1         0.0832
      21    O1      17.916152   21.094945   23.904006 O.3        1 MOL1        -0.5509
      22    H14     17.718399   20.460845   24.623708 H          1 MOL1         0.3779
@<TRIPOS>BOND
    1     1     2    1
    2     1     3    1
    3     1     4    1
    4     4     5    1
    5     4     6    1
    6     4     7    1
    7     7     8    1
    8     7     9    1
    9     7    10    1
   10    10    11    1
   11    10    12    1
   12    10    13    1
   13    13    14    1
   14    13    15    1
   15    15    16    1
   16    15    17    1
   17     1    18    1
   18    15    18    1
   19    18    19    1
   20    18    20    1
   21    13    21    1
   22    21    22    1
@<TRIPOS>SUBSTRUCTURE
       1 MOL1            1 RESIDUE      1      MOL     
@<SCITEGIC>MOL_PROPERTY
VConf Rank
SciTegic.value.IntegerValue
579

@<SCITEGIC>MOL_PROPERTY
Conf_Id
SciTegic.value.IntegerValue
76

@<SCITEGIC>MOL_PROPERTY
Delta U+W
SciTegic.value.DoubleValue
-3.175

@<SCITEGIC>MOL_PROPERTY
U+W
SciTegic.value.DoubleValue
3.248

@<SCITEGIC>MOL_PROPERTY
Grad RMS
SciTegic.value.DoubleValue
0.000000

@<SCITEGIC>MOL_PROPERTY
U
SciTegic.value.DoubleValue
5.336

@<SCITEGIC>MOL_PROPERTY
W
SciTegic.value.DoubleValue
-2.088

@<SCITEGIC>MOL_PROPERTY
W(PB)
SciTegic.value.DoubleValue
-4.098

@<SCITEGIC>MOL_PROPERTY
W(SA)
SciTegic.value.DoubleValue
2.010

@<SCITEGIC>MOL_PROPERTY
Valence
SciTegic.value.DoubleValue
12.390

@<SCITEGIC>MOL_PROPERTY
Coulomb
SciTegic.value.DoubleValue
-9.270

@<SCITEGIC>MOL_PROPERTY
VdW
SciTegic.value.DoubleValue
2.216

@<SCITEGIC>MOL_PROPERTY
VdW6
SciTegic.value.DoubleValue
-8.967

@<SCITEGIC>MOL_PROPERTY
VdW12
SciTegic.value.DoubleValue
11.183

@<SCITEGIC>MOL_PROPERTY
Bond
SciTegic.value.DoubleValue
0.218

@<SCITEGIC>MOL_PROPERTY
Angle
SciTegic.value.DoubleValue
2.426

@<SCITEGIC>MOL_PROPERTY
Pdih
SciTegic.value.DoubleValue
9.745

@<SCITEGIC>MOL_PROPERTY
Idih
SciTegic.value.DoubleValue
0.000

@<SCITEGIC>MOL_PROPERTY
Tether
SciTegic.value.DoubleValue
0.000

@<TRIPOS>MOLECULE
guest-5_confgen4.mol2 : confsearch ligand conformer 580
          22          22           1
SMALL
USER_CHARGES
 
@<TRIPOS>ATOM
       1    C1      20.054379   17.878590   23.523129 C.3        1 MOL1        -0.1685
       2    H1      20.683005   17.548137   24.361228 H          1 MOL1         0.0832
       3    H2      19.358280   17.051351   23.328357 H          1 MOL1         0.0832
       4    C2      20.961730   18.072567   22.284677 C.3        1 MOL1        -0.1685
       5    H3      21.933324   18.475191   22.601502 H          1 MOL1         0.0832
       6    H4      21.177952   17.081177   21.863751 H          1 MOL1         0.0832
       7    C3      20.369776   18.971428   21.174191 C.3        1 MOL1        -0.1685
       8    H5      19.287660   18.811232   21.073201 H          1 MOL1         0.0832
       9    H6      20.813442   18.667311   20.216608 H          1 MOL1         0.0832
      10    C4      20.687182   20.473674   21.385357 C.3        1 MOL1        -0.1761
      11    H7      21.764790   20.594374   21.554783 H          1 MOL1         0.0832
      12    H8      20.473522   21.011317   20.452242 H          1 MOL1         0.0832
      13    C5      19.921697   21.179530   22.527678 C.3        1 MOL1         0.1218
      14    H9      20.388190   22.166517   22.659356 H          1 MOL1         0.0789
      15    C6      19.977294   20.462413   23.899953 C.3        1 MOL1        -0.1761
      16    H10     21.022439   20.327074   24.206927 H          1 MOL1         0.0832
      17    H11     19.535381   21.137297   24.644286 H          1 MOL1         0.0832
      18    C7      19.225431   19.107610   23.966500 C.3        1 MOL1        -0.1685
      19    H12     18.895749   18.936644   25.000184 H          1 MOL1         0.0832
      20    H13     18.303653   19.158684   23.372229 H          1 MOL1         0.0832
      21    O1      18.567735   21.377980   22.133436 O.3        1 MOL1        -0.5509
      22    H14     18.109609   21.777712   22.900651 H          1 MOL1         0.3779
@<TRIPOS>BOND
    1     1     2    1
    2     1     3    1
    3     1     4    1
    4     4     5    1
    5     4     6    1
    6     4     7    1
    7     7     8    1
    8     7     9    1
    9     7    10    1
   10    10    11    1
   11    10    12    1
   12    10    13    1
   13    13    14    1
   14    13    15    1
   15    15    16    1
   16    15    17    1
   17     1    18    1
   18    15    18    1
   19    18    19    1
   20    18    20    1
   21    13    21    1
   22    21    22    1
@<TRIPOS>SUBSTRUCTURE
       1 MOL1            1 RESIDUE      1      MOL     
@<SCITEGIC>MOL_PROPERTY
VConf Rank
SciTegic.value.IntegerValue
580

@<SCITEGIC>MOL_PROPERTY
Conf_Id
SciTegic.value.IntegerValue
95

@<SCITEGIC>MOL_PROPERTY
Delta U+W
SciTegic.value.DoubleValue
-2.289

@<SCITEGIC>MOL_PROPERTY
U+W
SciTegic.value.DoubleValue
4.134

@<SCITEGIC>MOL_PROPERTY
Grad RMS
SciTegic.value.DoubleValue
0.000000

@<SCITEGIC>MOL_PROPERTY
U
SciTegic.value.DoubleValue
6.373

@<SCITEGIC>MOL_PROPERTY
W
SciTegic.value.DoubleValue
-2.240

@<SCITEGIC>MOL_PROPERTY
W(PB)
SciTegic.value.DoubleValue
-4.254

@<SCITEGIC>MOL_PROPERTY
W(SA)
SciTegic.value.DoubleValue
2.015

@<SCITEGIC>MOL_PROPERTY
Valence
SciTegic.value.DoubleValue
12.093

@<SCITEGIC>MOL_PROPERTY
Coulomb
SciTegic.value.DoubleValue
-8.058

@<SCITEGIC>MOL_PROPERTY
VdW
SciTegic.value.DoubleValue
2.339

@<SCITEGIC>MOL_PROPERTY
VdW6
SciTegic.value.DoubleValue
-9.683

@<SCITEGIC>MOL_PROPERTY
VdW12
SciTegic.value.DoubleValue
12.022

@<SCITEGIC>MOL_PROPERTY
Bond
SciTegic.value.DoubleValue
0.268

@<SCITEGIC>MOL_PROPERTY
Angle
SciTegic.value.DoubleValue
3.005

@<SCITEGIC>MOL_PROPERTY
Pdih
SciTegic.value.DoubleValue
8.820

@<SCITEGIC>MOL_PROPERTY
Idih
SciTegic.value.DoubleValue
0.000

@<SCITEGIC>MOL_PROPERTY
Tether
SciTegic.value.DoubleValue
0.000

@<TRIPOS>MOLECULE
guest-5_confgen4.mol2 : confsearch ligand conformer 581
          22          22           1
SMALL
USER_CHARGES
 
@<TRIPOS>ATOM
       1    C1      21.100152   18.760013   24.042961 C.3        1 MOL1        -0.1685
       2    H1      21.742943   19.223951   24.803445 H          1 MOL1         0.0832
       3    H2      21.152189   17.678490   24.228403 H          1 MOL1         0.0832
       4    C2      21.704739   19.059140   22.650364 C.3        1 MOL1        -0.1685
       5    H3      22.140966   20.067200   22.649720 H          1 MOL1         0.0832
       6    H4      22.548992   18.374156   22.492777 H          1 MOL1         0.0832
       7    C3      20.720178   18.923454   21.465567 C.3        1 MOL1        -0.1685
       8    H5      20.031994   18.081331   21.620652 H          1 MOL1         0.0832
       9    H6      21.301713   18.680358   20.566041 H          1 MOL1         0.0832
      10    C4      19.940007   20.232429   21.184098 C.3        1 MOL1        -0.1761
      11    H7      20.650268   21.066881   21.119945 H          1 MOL1         0.0832
      12    H8      19.483521   20.161710   20.188305 H          1 MOL1         0.0832
      13    C5      18.835499   20.600249   22.201204 C.3        1 MOL1         0.1218
      14    H9      18.508717   21.621975   21.959566 H          1 MOL1         0.0789
      15    C6      19.282546   20.605313   23.684598 C.3        1 MOL1        -0.1761
      16    H10     20.122626   21.298374   23.820320 H          1 MOL1         0.0832
      17    H11     18.453330   21.020680   24.271710 H          1 MOL1         0.0832
      18    C7      19.638634   19.214308   24.270896 C.3        1 MOL1        -0.1685
      19    H12     19.455512   19.230758   25.353676 H          1 MOL1         0.0832
      20    H13     18.952936   18.454801   23.872665 H          1 MOL1         0.0832
      21    O1      17.724051   19.726420   22.027995 O.3        1 MOL1        -0.5509
      22    H14     17.494824   19.747823   21.076584 H          1 MOL1         0.3779
@<TRIPOS>BOND
    1     1     2    1
    2     1     3    1
    3     1     4    1
    4     4     5    1
    5     4     6    1
    6     4     7    1
    7     7     8    1
    8     7     9    1
    9     7    10    1
   10    10    11    1
   11    10    12    1
   12    10    13    1
   13    13    14    1
   14    13    15    1
   15    15    16    1
   16    15    17    1
   17     1    18    1
   18    15    18    1
   19    18    19    1
   20    18    20    1
   21    13    21    1
   22    21    22    1
@<TRIPOS>SUBSTRUCTURE
       1 MOL1            1 RESIDUE      1      MOL     
@<SCITEGIC>MOL_PROPERTY
VConf Rank
SciTegic.value.IntegerValue
581

@<SCITEGIC>MOL_PROPERTY
Conf_Id
SciTegic.value.IntegerValue
41

@<SCITEGIC>MOL_PROPERTY
Delta U+W
SciTegic.value.DoubleValue
-2.114

@<SCITEGIC>MOL_PROPERTY
U+W
SciTegic.value.DoubleValue
4.310

@<SCITEGIC>MOL_PROPERTY
Grad RMS
SciTegic.value.DoubleValue
0.000000

@<SCITEGIC>MOL_PROPERTY
U
SciTegic.value.DoubleValue
6.598

@<SCITEGIC>MOL_PROPERTY
W
SciTegic.value.DoubleValue
-2.289

@<SCITEGIC>MOL_PROPERTY
W(PB)
SciTegic.value.DoubleValue
-4.294

@<SCITEGIC>MOL_PROPERTY
W(SA)
SciTegic.value.DoubleValue
2.005

@<SCITEGIC>MOL_PROPERTY
Valence
SciTegic.value.DoubleValue
12.082

@<SCITEGIC>MOL_PROPERTY
Coulomb
SciTegic.value.DoubleValue
-7.801

@<SCITEGIC>MOL_PROPERTY
VdW
SciTegic.value.DoubleValue
2.317

@<SCITEGIC>MOL_PROPERTY
VdW6
SciTegic.value.DoubleValue
-9.658

@<SCITEGIC>MOL_PROPERTY
VdW12
SciTegic.value.DoubleValue
11.975

@<SCITEGIC>MOL_PROPERTY
Bond
SciTegic.value.DoubleValue
0.267

@<SCITEGIC>MOL_PROPERTY
Angle
SciTegic.value.DoubleValue
3.051

@<SCITEGIC>MOL_PROPERTY
Pdih
SciTegic.value.DoubleValue
8.764

@<SCITEGIC>MOL_PROPERTY
Idih
SciTegic.value.DoubleValue
0.000

@<SCITEGIC>MOL_PROPERTY
Tether
SciTegic.value.DoubleValue
0.000

@<TRIPOS>MOLECULE
guest-5_confgen4.mol2 : confsearch ligand conformer 582
          22          22           1
SMALL
USER_CHARGES
 
@<TRIPOS>ATOM
       1    C1      18.843400   20.645758   22.793818 C.3        1 MOL1        -0.1685
       2    H1      17.926050   21.206454   23.018848 H          1 MOL1         0.0832
       3    H2      19.543167   21.366122   22.348198 H          1 MOL1         0.0832
       4    C2      18.483745   19.535353   21.781377 C.3        1 MOL1        -0.1685
       5    H3      17.834150   18.793310   22.265092 H          1 MOL1         0.0832
       6    H4      17.885686   19.977817   20.973225 H          1 MOL1         0.0832
       7    C3      19.698810   18.822093   21.148844 C.3        1 MOL1        -0.1685
       8    H5      20.231328   19.521599   20.490812 H          1 MOL1         0.0832
       9    H6      19.320350   18.029058   20.490066 H          1 MOL1         0.0832
      10    C4      20.690101   18.185137   22.160188 C.3        1 MOL1        -0.1761
      11    H7      20.147361   17.545506   22.867693 H          1 MOL1         0.0832
      12    H8      21.350520   17.511967   21.598696 H          1 MOL1         0.0832
      13    C5      21.598486   19.174244   22.935130 C.3        1 MOL1         0.1218
      14    H9      22.429808   18.583142   23.345957 H          1 MOL1         0.0789
      15    C6      20.941799   19.891973   24.142925 C.3        1 MOL1        -0.1761
      16    H10     21.189073   19.324459   25.049482 H          1 MOL1         0.0832
      17    H11     21.417263   20.872331   24.278214 H          1 MOL1         0.0832
      18    C7      19.405314   20.085753   24.119210 C.3        1 MOL1        -0.1685
      19    H12     18.906047   19.138513   24.363925 H          1 MOL1         0.0832
      20    H13     19.141469   20.776005   24.931993 H          1 MOL1         0.0832
      21    O1      22.154343   20.140527   22.047302 O.3        1 MOL1        -0.5509
      22    H14     22.745618   20.708507   22.581814 H          1 MOL1         0.3779
@<TRIPOS>BOND
    1     1     2    1
    2     1     3    1
    3     1     4    1
    4     4     5    1
    5     4     6    1
    6     4     7    1
    7     7     8    1
    8     7     9    1
    9     7    10    1
   10    10    11    1
   11    10    12    1
   12    10    13    1
   13    13    14    1
   14    13    15    1
   15    15    16    1
   16    15    17    1
   17     1    18    1
   18    15    18    1
   19    18    19    1
   20    18    20    1
   21    13    21    1
   22    21    22    1
@<TRIPOS>SUBSTRUCTURE
       1 MOL1            1 RESIDUE      1      MOL     
@<SCITEGIC>MOL_PROPERTY
VConf Rank
SciTegic.value.IntegerValue
582

@<SCITEGIC>MOL_PROPERTY
Conf_Id
SciTegic.value.IntegerValue
104

@<SCITEGIC>MOL_PROPERTY
Delta U+W
SciTegic.value.DoubleValue
-1.172

@<SCITEGIC>MOL_PROPERTY
U+W
SciTegic.value.DoubleValue
5.252

@<SCITEGIC>MOL_PROPERTY
Grad RMS
SciTegic.value.DoubleValue
0.000000

@<SCITEGIC>MOL_PROPERTY
U
SciTegic.value.DoubleValue
7.482

@<SCITEGIC>MOL_PROPERTY
W
SciTegic.value.DoubleValue
-2.230

@<SCITEGIC>MOL_PROPERTY
W(PB)
SciTegic.value.DoubleValue
-4.220

@<SCITEGIC>MOL_PROPERTY
W(SA)
SciTegic.value.DoubleValue
1.990

@<SCITEGIC>MOL_PROPERTY
Valence
SciTegic.value.DoubleValue
12.309

@<SCITEGIC>MOL_PROPERTY
Coulomb
SciTegic.value.DoubleValue
-7.084

@<SCITEGIC>MOL_PROPERTY
VdW
SciTegic.value.DoubleValue
2.258

@<SCITEGIC>MOL_PROPERTY
VdW6
SciTegic.value.DoubleValue
-9.770

@<SCITEGIC>MOL_PROPERTY
VdW12
SciTegic.value.DoubleValue
12.028

@<SCITEGIC>MOL_PROPERTY
Bond
SciTegic.value.DoubleValue
0.284

@<SCITEGIC>MOL_PROPERTY
Angle
SciTegic.value.DoubleValue
3.491

@<SCITEGIC>MOL_PROPERTY
Pdih
SciTegic.value.DoubleValue
8.535

@<SCITEGIC>MOL_PROPERTY
Idih
SciTegic.value.DoubleValue
0.000

@<SCITEGIC>MOL_PROPERTY
Tether
SciTegic.value.DoubleValue
0.000

@<TRIPOS>MOLECULE
guest-5_confgen4.mol2 : confsearch ligand conformer 583
          22          22           1
SMALL
USER_CHARGES
 
@<TRIPOS>ATOM
       1    C1      18.493364   19.098227   22.657997 C.3        1 MOL1        -0.1685
       2    H1      18.200152   19.808533   23.442837 H          1 MOL1         0.0832
       3    H2      17.585960   18.530910   22.409582 H          1 MOL1         0.0832
       4    C2      19.547218   18.097470   23.184651 C.3        1 MOL1        -0.1685
       5    H3      19.032879   17.322627   23.769734 H          1 MOL1         0.0832
       6    H4      19.995900   17.562426   22.337451 H          1 MOL1         0.0832
       7    C3      20.660094   18.702148   24.077706 C.3        1 MOL1        -0.1685
       8    H5      21.546379   18.055766   24.014433 H          1 MOL1         0.0832
       9    H6      20.333501   18.646535   25.125166 H          1 MOL1         0.0832
      10    C4      21.079291   20.170502   23.795905 C.3        1 MOL1        -0.1761
      11    H7      20.337804   20.846957   24.240385 H          1 MOL1         0.0832
      12    H8      22.011474   20.367306   24.341163 H          1 MOL1         0.0832
      13    C5      21.293457   20.570719   22.318089 C.3        1 MOL1         0.1218
      14    H9      21.942400   21.458242   22.310438 H          1 MOL1         0.0789
      15    C6      19.980388   20.971289   21.608397 C.3        1 MOL1        -0.1761
      16    H10     19.504201   21.778752   22.179632 H          1 MOL1         0.0832
      17    H11     20.237428   21.409673   20.635261 H          1 MOL1         0.0832
      18    C7      18.946084   19.841571   21.378737 C.3        1 MOL1        -0.1685
      19    H12     18.059866   20.287780   20.907329 H          1 MOL1         0.0832
      20    H13     19.337608   19.121086   20.647923 H          1 MOL1         0.0832
      21    O1      21.934920   19.524018   21.605973 O.3        1 MOL1        -0.5509
      22    H14     21.343341   18.754985   21.728071 H          1 MOL1         0.3779
@<TRIPOS>BOND
    1     1     2    1
    2     1     3    1
    3     1     4    1
    4     4     5    1
    5     4     6    1
    6     4     7    1
    7     7     8    1
    8     7     9    1
    9     7    10    1
   10    10    11    1
   11    10    12    1
   12    10    13    1
   13    13    14    1
   14    13    15    1
   15    15    16    1
   16    15    17    1
   17     1    18    1
   18    15    18    1
   19    18    19    1
   20    18    20    1
   21    13    21    1
   22    21    22    1
@<TRIPOS>SUBSTRUCTURE
       1 MOL1            1 RESIDUE      1      MOL     
@<SCITEGIC>MOL_PROPERTY
VConf Rank
SciTegic.value.IntegerValue
583

@<SCITEGIC>MOL_PROPERTY
Conf_Id
SciTegic.value.IntegerValue
99

@<SCITEGIC>MOL_PROPERTY
Delta U+W
SciTegic.value.DoubleValue
-3.852

@<SCITEGIC>MOL_PROPERTY
U+W
SciTegic.value.DoubleValue
2.572

@<SCITEGIC>MOL_PROPERTY
Grad RMS
SciTegic.value.DoubleValue
0.000000

@<SCITEGIC>MOL_PROPERTY
U
SciTegic.value.DoubleValue
3.922

@<SCITEGIC>MOL_PROPERTY
W
SciTegic.value.DoubleValue
-1.350

@<SCITEGIC>MOL_PROPERTY
W(PB)
SciTegic.value.DoubleValue
-3.345

@<SCITEGIC>MOL_PROPERTY
W(SA)
SciTegic.value.DoubleValue
1.995

@<SCITEGIC>MOL_PROPERTY
Valence
SciTegic.value.DoubleValue
12.571

@<SCITEGIC>MOL_PROPERTY
Coulomb
SciTegic.value.DoubleValue
-10.581

@<SCITEGIC>MOL_PROPERTY
VdW
SciTegic.value.DoubleValue
1.932

@<SCITEGIC>MOL_PROPERTY
VdW6
SciTegic.value.DoubleValue
-10.483

@<SCITEGIC>MOL_PROPERTY
VdW12
SciTegic.value.DoubleValue
12.415

@<SCITEGIC>MOL_PROPERTY
Bond
SciTegic.value.DoubleValue
0.268

@<SCITEGIC>MOL_PROPERTY
Angle
SciTegic.value.DoubleValue
3.728

@<SCITEGIC>MOL_PROPERTY
Pdih
SciTegic.value.DoubleValue
8.575

@<SCITEGIC>MOL_PROPERTY
Idih
SciTegic.value.DoubleValue
0.000

@<SCITEGIC>MOL_PROPERTY
Tether
SciTegic.value.DoubleValue
0.000

@<TRIPOS>MOLECULE
guest-5_confgen4.mol2 : confsearch ligand conformer 584
          22          22           1
SMALL
USER_CHARGES
 
@<TRIPOS>ATOM
       1    C1      20.602099   18.697811   23.981273 C.3        1 MOL1        -0.1685
       2    H1      20.546536   18.399726   25.037374 H          1 MOL1         0.0832
       3    H2      21.409397   18.086250   23.556634 H          1 MOL1         0.0832
       4    C2      20.987597   20.205343   23.930366 C.3        1 MOL1        -0.1685
       5    H3      21.099050   20.559721   24.964429 H          1 MOL1         0.0832
       6    H4      21.982222   20.326620   23.480847 H          1 MOL1         0.0832
       7    C3      19.978123   21.140604   23.216926 C.3        1 MOL1        -0.1685
       8    H5      20.266686   22.180946   23.419773 H          1 MOL1         0.0832
       9    H6      18.987268   21.034951   23.675853 H          1 MOL1         0.0832
      10    C4      19.863525   20.970944   21.676500 C.3        1 MOL1        -0.1761
      11    H7      18.891265   21.369253   21.359005 H          1 MOL1         0.0832
      12    H8      20.611769   21.618111   21.199738 H          1 MOL1         0.0832
      13    C5      20.028905   19.550515   21.082202 C.3        1 MOL1         0.1218
      14    H9      19.693803   19.600913   20.036286 H          1 MOL1         0.0789
      15    C6      19.212590   18.423925   21.762326 C.3        1 MOL1        -0.1761
      16    H10     18.163432   18.521042   21.454794 H          1 MOL1         0.0832
      17    H11     19.551462   17.468627   21.339753 H          1 MOL1         0.0832
      18    C7      19.256473   18.318075   23.312058 C.3        1 MOL1        -0.1685
      19    H12     18.445129   18.914743   23.747116 H          1 MOL1         0.0832
      20    H13     19.014051   17.282001   23.585016 H          1 MOL1         0.0832
      21    O1      21.403366   19.198654   21.065054 O.3        1 MOL1        -0.5509
      22    H14     21.651124   19.167126   22.010864 H          1 MOL1         0.3779
@<TRIPOS>BOND
    1     1     2    1
    2     1     3    1
    3     1     4    1
    4     4     5    1
    5     4     6    1
    6     4     7    1
    7     7     8    1
    8     7     9    1
    9     7    10    1
   10    10    11    1
   11    10    12    1
   12    10    13    1
   13    13    14    1
   14    13    15    1
   15    15    16    1
   16    15    17    1
   17     1    18    1
   18    15    18    1
   19    18    19    1
   20    18    20    1
   21    13    21    1
   22    21    22    1
@<TRIPOS>SUBSTRUCTURE
       1 MOL1            1 RESIDUE      1      MOL     
@<SCITEGIC>MOL_PROPERTY
VConf Rank
SciTegic.value.IntegerValue
584

@<SCITEGIC>MOL_PROPERTY
Conf_Id
SciTegic.value.IntegerValue
98

@<SCITEGIC>MOL_PROPERTY
Delta U+W
SciTegic.value.DoubleValue
0.930

@<SCITEGIC>MOL_PROPERTY
U+W
SciTegic.value.DoubleValue
7.353

@<SCITEGIC>MOL_PROPERTY
Grad RMS
SciTegic.value.DoubleValue
0.000000

@<SCITEGIC>MOL_PROPERTY
U
SciTegic.value.DoubleValue
8.455

@<SCITEGIC>MOL_PROPERTY
W
SciTegic.value.DoubleValue
-1.102

@<SCITEGIC>MOL_PROPERTY
W(PB)
SciTegic.value.DoubleValue
-3.101

@<SCITEGIC>MOL_PROPERTY
W(SA)
SciTegic.value.DoubleValue
2.000

@<SCITEGIC>MOL_PROPERTY
Valence
SciTegic.value.DoubleValue
15.601

@<SCITEGIC>MOL_PROPERTY
Coulomb
SciTegic.value.DoubleValue
-10.573

@<SCITEGIC>MOL_PROPERTY
VdW
SciTegic.value.DoubleValue
3.427

@<SCITEGIC>MOL_PROPERTY
VdW6
SciTegic.value.DoubleValue
-11.360

@<SCITEGIC>MOL_PROPERTY
VdW12
SciTegic.value.DoubleValue
14.787

@<SCITEGIC>MOL_PROPERTY
Bond
SciTegic.value.DoubleValue
0.471

@<SCITEGIC>MOL_PROPERTY
Angle
SciTegic.value.DoubleValue
5.445

@<SCITEGIC>MOL_PROPERTY
Pdih
SciTegic.value.DoubleValue
9.685

@<SCITEGIC>MOL_PROPERTY
Idih
SciTegic.value.DoubleValue
0.000

@<SCITEGIC>MOL_PROPERTY
Tether
SciTegic.value.DoubleValue
0.000

@<TRIPOS>MOLECULE
guest-5_confgen4.mol2 : confsearch ligand conformer 585
          22          22           1
SMALL
USER_CHARGES
 
@<TRIPOS>ATOM
       1    C1      19.113352   19.717028   21.203681 C.3        1 MOL1        -0.1685
       2    H1      18.372601   20.270192   21.795355 H          1 MOL1         0.0832
       3    H2      18.741818   19.758588   20.170750 H          1 MOL1         0.0832
       4    C2      19.145380   18.235304   21.657141 C.3        1 MOL1        -0.1685
       5    H3      18.137036   17.823670   21.513347 H          1 MOL1         0.0832
       6    H4      19.799647   17.660070   20.988064 H          1 MOL1         0.0832
       7    C3      19.567446   17.977032   23.130166 C.3        1 MOL1        -0.1685
       8    H5      20.602433   17.613063   23.166820 H          1 MOL1         0.0832
       9    H6      18.962048   17.147204   23.519413 H          1 MOL1         0.0832
      10    C4      19.413033   19.193583   24.080887 C.3        1 MOL1        -0.1761
      11    H7      18.394879   19.592533   23.992412 H          1 MOL1         0.0832
      12    H8      19.485506   18.833700   25.116077 H          1 MOL1         0.0832
      13    C5      20.434916   20.350281   23.876740 C.3        1 MOL1         0.1218
      14    H9      19.878634   21.298746   23.882418 H          1 MOL1         0.0789
      15    C6      21.274353   20.290351   22.575966 C.3        1 MOL1        -0.1761
      16    H10     22.034344   21.081890   22.606567 H          1 MOL1         0.0832
      17    H11     21.841065   19.352008   22.545312 H          1 MOL1         0.0832
      18    C7      20.472889   20.452624   21.260243 C.3        1 MOL1        -0.1685
      19    H12     20.290443   21.521608   21.084741 H          1 MOL1         0.0832
      20    H13     21.101267   20.113216   20.425609 H          1 MOL1         0.0832
      21    O1      21.344184   20.346721   24.971452 O.3        1 MOL1        -0.5509
      22    H14     21.937979   21.116390   24.848175 H          1 MOL1         0.3779
@<TRIPOS>BOND
    1     1     2    1
    2     1     3    1
    3     1     4    1
    4     4     5    1
    5     4     6    1
    6     4     7    1
    7     7     8    1
    8     7     9    1
    9     7    10    1
   10    10    11    1
   11    10    12    1
   12    10    13    1
   13    13    14    1
   14    13    15    1
   15    15    16    1
   16    15    17    1
   17     1    18    1
   18    15    18    1
   19    18    19    1
   20    18    20    1
   21    13    21    1
   22    21    22    1
@<TRIPOS>SUBSTRUCTURE
       1 MOL1            1 RESIDUE      1      MOL     
@<SCITEGIC>MOL_PROPERTY
VConf Rank
SciTegic.value.IntegerValue
585

@<SCITEGIC>MOL_PROPERTY
Conf_Id
SciTegic.value.IntegerValue
141

@<SCITEGIC>MOL_PROPERTY
Delta U+W
SciTegic.value.DoubleValue
0.000

@<SCITEGIC>MOL_PROPERTY
U+W
SciTegic.value.DoubleValue
6.423

@<SCITEGIC>MOL_PROPERTY
Grad RMS
SciTegic.value.DoubleValue
0.000000

@<SCITEGIC>MOL_PROPERTY
U
SciTegic.value.DoubleValue
8.781

@<SCITEGIC>MOL_PROPERTY
W
SciTegic.value.DoubleValue
-2.358

@<SCITEGIC>MOL_PROPERTY
W(PB)
SciTegic.value.DoubleValue
-4.373

@<SCITEGIC>MOL_PROPERTY
W(SA)
SciTegic.value.DoubleValue
2.015

@<SCITEGIC>MOL_PROPERTY
Valence
SciTegic.value.DoubleValue
13.328

@<SCITEGIC>MOL_PROPERTY
Coulomb
SciTegic.value.DoubleValue
-8.387

@<SCITEGIC>MOL_PROPERTY
VdW
SciTegic.value.DoubleValue
3.840

@<SCITEGIC>MOL_PROPERTY
VdW6
SciTegic.value.DoubleValue
-9.744

@<SCITEGIC>MOL_PROPERTY
VdW12
SciTegic.value.DoubleValue
13.584

@<SCITEGIC>MOL_PROPERTY
Bond
SciTegic.value.DoubleValue
0.436

@<SCITEGIC>MOL_PROPERTY
Angle
SciTegic.value.DoubleValue
3.478

@<SCITEGIC>MOL_PROPERTY
Pdih
SciTegic.value.DoubleValue
9.415

@<SCITEGIC>MOL_PROPERTY
Idih
SciTegic.value.DoubleValue
0.000

@<SCITEGIC>MOL_PROPERTY
Tether
SciTegic.value.DoubleValue
0.000

@<TRIPOS>MOLECULE
guest-5_confgen4.mol2 : confsearch ligand conformer 586
          22          22           1
SMALL
USER_CHARGES
 
@<TRIPOS>ATOM
       1    C1      20.478501   21.036921   21.775367 C.3        1 MOL1        -0.1685
       2    H1      21.396779   20.509483   21.483507 H          1 MOL1         0.0832
       3    H2      20.516258   22.013121   21.272861 H          1 MOL1         0.0832
       4    C2      20.449546   21.295021   23.301211 C.3        1 MOL1        -0.1685
       5    H3      21.227277   22.031142   23.546393 H          1 MOL1         0.0832
       6    H4      19.495517   21.767312   23.572597 H          1 MOL1         0.0832
       7    C3      20.671639   20.046365   24.185441 C.3        1 MOL1        -0.1685
       8    H5      20.561140   20.346909   25.236293 H          1 MOL1         0.0832
       9    H6      21.710211   19.704204   24.079361 H          1 MOL1         0.0832
      10    C4      19.708898   18.866678   23.904998 C.3        1 MOL1        -0.1761
      11    H7      19.810609   18.151472   24.731811 H          1 MOL1         0.0832
      12    H8      18.665160   19.206288   23.921575 H          1 MOL1         0.0832
      13    C5      20.022000   18.144322   22.575413 C.3        1 MOL1         0.1218
      14    H9      21.107521   18.189216   22.406679 H          1 MOL1         0.0789
      15    C6      19.313791   18.741600   21.338079 C.3        1 MOL1        -0.1761
      16    H10     19.841497   18.378186   20.446840 H          1 MOL1         0.0832
      17    H11     18.295521   18.335717   21.271029 H          1 MOL1         0.0832
      18    C7      19.224817   20.286662   21.267990 C.3        1 MOL1        -0.1685
      19    H12     19.038855   20.568849   20.222709 H          1 MOL1         0.0832
      20    H13     18.343132   20.629626   21.826305 H          1 MOL1         0.0832
      21    O1      19.631966   16.781365   22.691342 O.3        1 MOL1        -0.5509
      22    H14     20.148423   16.402051   23.432970 H          1 MOL1         0.3779
@<TRIPOS>BOND
    1     1     2    1
    2     1     3    1
    3     1     4    1
    4     4     5    1
    5     4     6    1
    6     4     7    1
    7     7     8    1
    8     7     9    1
    9     7    10    1
   10    10    11    1
   11    10    12    1
   12    10    13    1
   13    13    14    1
   14    13    15    1
   15    15    16    1
   16    15    17    1
   17     1    18    1
   18    15    18    1
   19    18    19    1
   20    18    20    1
   21    13    21    1
   22    21    22    1
@<TRIPOS>SUBSTRUCTURE
       1 MOL1            1 RESIDUE      1      MOL     
@<SCITEGIC>MOL_PROPERTY
VConf Rank
SciTegic.value.IntegerValue
586

@<SCITEGIC>MOL_PROPERTY
Conf_Id
SciTegic.value.IntegerValue
144

@<SCITEGIC>MOL_PROPERTY
Delta U+W
SciTegic.value.DoubleValue
-3.291

@<SCITEGIC>MOL_PROPERTY
U+W
SciTegic.value.DoubleValue
3.132

@<SCITEGIC>MOL_PROPERTY
Grad RMS
SciTegic.value.DoubleValue
0.000000

@<SCITEGIC>MOL_PROPERTY
U
SciTegic.value.DoubleValue
5.411

@<SCITEGIC>MOL_PROPERTY
W
SciTegic.value.DoubleValue
-2.279

@<SCITEGIC>MOL_PROPERTY
W(PB)
SciTegic.value.DoubleValue
-4.300

@<SCITEGIC>MOL_PROPERTY
W(SA)
SciTegic.value.DoubleValue
2.021

@<SCITEGIC>MOL_PROPERTY
Valence
SciTegic.value.DoubleValue
11.909

@<SCITEGIC>MOL_PROPERTY
Coulomb
SciTegic.value.DoubleValue
-8.733

@<SCITEGIC>MOL_PROPERTY
VdW
SciTegic.value.DoubleValue
2.236

@<SCITEGIC>MOL_PROPERTY
VdW6
SciTegic.value.DoubleValue
-8.936

@<SCITEGIC>MOL_PROPERTY
VdW12
SciTegic.value.DoubleValue
11.172

@<SCITEGIC>MOL_PROPERTY
Bond
SciTegic.value.DoubleValue
0.223

@<SCITEGIC>MOL_PROPERTY
Angle
SciTegic.value.DoubleValue
2.457

@<SCITEGIC>MOL_PROPERTY
Pdih
SciTegic.value.DoubleValue
9.228

@<SCITEGIC>MOL_PROPERTY
Idih
SciTegic.value.DoubleValue
0.000

@<SCITEGIC>MOL_PROPERTY
Tether
SciTegic.value.DoubleValue
0.000

@<TRIPOS>MOLECULE
guest-5_confgen4.mol2 : confsearch ligand conformer 587
          22          22           1
SMALL
USER_CHARGES
 
@<TRIPOS>ATOM
       1    C1      19.281426   20.962858   21.890539 C.3        1 MOL1        -0.1685
       2    H1      18.616608   21.764020   21.539758 H          1 MOL1         0.0832
       3    H2      20.273467   21.187821   21.475898 H          1 MOL1         0.0832
       4    C2      18.745260   19.620812   21.339618 C.3        1 MOL1        -0.1685
       5    H3      17.936702   19.256422   21.987867 H          1 MOL1         0.0832
       6    H4      18.278203   19.799452   20.361383 H          1 MOL1         0.0832
       7    C3      19.810010   18.511158   21.163834 C.3        1 MOL1        -0.1685
       8    H5      20.317670   18.652437   20.199865 H          1 MOL1         0.0832
       9    H6      19.289739   17.546474   21.088202 H          1 MOL1         0.0832
      10    C4      20.891045   18.415542   22.268534 C.3        1 MOL1        -0.1761
      11    H7      21.352496   17.421027   22.201650 H          1 MOL1         0.0832
      12    H8      21.693936   19.131461   22.050087 H          1 MOL1         0.0832
      13    C5      20.375610   18.649095   23.706370 C.3        1 MOL1         0.1218
      14    H9      19.354227   18.253567   23.800200 H          1 MOL1         0.0789
      15    C6      20.392437   20.141889   24.106695 C.3        1 MOL1        -0.1761
      16    H10     20.263984   20.215625   25.194902 H          1 MOL1         0.0832
      17    H11     21.380000   20.568627   23.888291 H          1 MOL1         0.0832
      18    C7      19.303832   21.013850   23.437113 C.3        1 MOL1        -0.1685
      19    H12     18.317296   20.726630   23.825925 H          1 MOL1         0.0832
      20    H13     19.457393   22.055329   23.751002 H          1 MOL1         0.0832
      21    O1      21.224164   17.946909   24.604759 O.3        1 MOL1        -0.5509
      22    H14     22.120568   18.324619   24.490934 H          1 MOL1         0.3779
@<TRIPOS>BOND
    1     1     2    1
    2     1     3    1
    3     1     4    1
    4     4     5    1
    5     4     6    1
    6     4     7    1
    7     7     8    1
    8     7     9    1
    9     7    10    1
   10    10    11    1
   11    10    12    1
   12    10    13    1
   13    13    14    1
   14    13    15    1
   15    15    16    1
   16    15    17    1
   17     1    18    1
   18    15    18    1
   19    18    19    1
   20    18    20    1
   21    13    21    1
   22    21    22    1
@<TRIPOS>SUBSTRUCTURE
       1 MOL1            1 RESIDUE      1      MOL     
@<SCITEGIC>MOL_PROPERTY
VConf Rank
SciTegic.value.IntegerValue
587

@<SCITEGIC>MOL_PROPERTY
Conf_Id
SciTegic.value.IntegerValue
76

@<SCITEGIC>MOL_PROPERTY
Delta U+W
SciTegic.value.DoubleValue
-3.175

@<SCITEGIC>MOL_PROPERTY
U+W
SciTegic.value.DoubleValue
3.248

@<SCITEGIC>MOL_PROPERTY
Grad RMS
SciTegic.value.DoubleValue
0.000000

@<SCITEGIC>MOL_PROPERTY
U
SciTegic.value.DoubleValue
5.336

@<SCITEGIC>MOL_PROPERTY
W
SciTegic.value.DoubleValue
-2.088

@<SCITEGIC>MOL_PROPERTY
W(PB)
SciTegic.value.DoubleValue
-4.098

@<SCITEGIC>MOL_PROPERTY
W(SA)
SciTegic.value.DoubleValue
2.010

@<SCITEGIC>MOL_PROPERTY
Valence
SciTegic.value.DoubleValue
12.390

@<SCITEGIC>MOL_PROPERTY
Coulomb
SciTegic.value.DoubleValue
-9.270

@<SCITEGIC>MOL_PROPERTY
VdW
SciTegic.value.DoubleValue
2.216

@<SCITEGIC>MOL_PROPERTY
VdW6
SciTegic.value.DoubleValue
-8.967

@<SCITEGIC>MOL_PROPERTY
VdW12
SciTegic.value.DoubleValue
11.183

@<SCITEGIC>MOL_PROPERTY
Bond
SciTegic.value.DoubleValue
0.218

@<SCITEGIC>MOL_PROPERTY
Angle
SciTegic.value.DoubleValue
2.426

@<SCITEGIC>MOL_PROPERTY
Pdih
SciTegic.value.DoubleValue
9.745

@<SCITEGIC>MOL_PROPERTY
Idih
SciTegic.value.DoubleValue
0.000

@<SCITEGIC>MOL_PROPERTY
Tether
SciTegic.value.DoubleValue
0.000

@<TRIPOS>MOLECULE
guest-5_confgen4.mol2 : confsearch ligand conformer 588
          22          22           1
SMALL
USER_CHARGES
 
@<TRIPOS>ATOM
       1    C1      18.913843   18.439556   21.721618 C.3        1 MOL1        -0.1685
       2    H1      17.850189   18.251180   21.921456 H          1 MOL1         0.0832
       3    H2      19.141888   17.902695   20.790709 H          1 MOL1         0.0832
       4    C2      19.740016   17.819037   22.873603 C.3        1 MOL1        -0.1685
       5    H3      19.197584   17.941187   23.820876 H          1 MOL1         0.0832
       6    H4      19.796251   16.734940   22.705213 H          1 MOL1         0.0832
       7    C3      21.173616   18.378642   23.025840 C.3        1 MOL1        -0.1685
       8    H5      21.622103   18.584478   22.044347 H          1 MOL1         0.0832
       9    H6      21.796067   17.600725   23.488107 H          1 MOL1         0.0832
      10    C4      21.234735   19.633253   23.933747 C.3        1 MOL1        -0.1761
      11    H7      20.716822   19.420985   24.877792 H          1 MOL1         0.0832
      12    H8      22.282073   19.817106   24.207053 H          1 MOL1         0.0832
      13    C5      20.662698   20.938310   23.334834 C.3        1 MOL1         0.1218
      14    H9      20.614557   21.669080   24.155050 H          1 MOL1         0.0789
      15    C6      19.235296   20.822030   22.743657 C.3        1 MOL1        -0.1761
      16    H10     18.543260   20.453760   23.511994 H          1 MOL1         0.0832
      17    H11     18.894221   21.836487   22.500075 H          1 MOL1         0.0832
      18    C7      19.120317   19.951477   21.465324 C.3        1 MOL1        -0.1685
      19    H12     18.271643   20.311011   20.867903 H          1 MOL1         0.0832
      20    H13     20.004382   20.095762   20.830460 H          1 MOL1         0.0832
      21    O1      21.561781   21.436496   22.349196 O.3        1 MOL1        -0.5509
      22    H14     21.138876   22.229610   21.961373 H          1 MOL1         0.3779
@<TRIPOS>BOND
    1     1     2    1
    2     1     3    1
    3     1     4    1
    4     4     5    1
    5     4     6    1
    6     4     7    1
    7     7     8    1
    8     7     9    1
    9     7    10    1
   10    10    11    1
   11    10    12    1
   12    10    13    1
   13    13    14    1
   14    13    15    1
   15    15    16    1
   16    15    17    1
   17     1    18    1
   18    15    18    1
   19    18    19    1
   20    18    20    1
   21    13    21    1
   22    21    22    1
@<TRIPOS>SUBSTRUCTURE
       1 MOL1            1 RESIDUE      1      MOL     
@<SCITEGIC>MOL_PROPERTY
VConf Rank
SciTegic.value.IntegerValue
588

@<SCITEGIC>MOL_PROPERTY
Conf_Id
SciTegic.value.IntegerValue
95

@<SCITEGIC>MOL_PROPERTY
Delta U+W
SciTegic.value.DoubleValue
-2.289

@<SCITEGIC>MOL_PROPERTY
U+W
SciTegic.value.DoubleValue
4.134

@<SCITEGIC>MOL_PROPERTY
Grad RMS
SciTegic.value.DoubleValue
0.000000

@<SCITEGIC>MOL_PROPERTY
U
SciTegic.value.DoubleValue
6.373

@<SCITEGIC>MOL_PROPERTY
W
SciTegic.value.DoubleValue
-2.240

@<SCITEGIC>MOL_PROPERTY
W(PB)
SciTegic.value.DoubleValue
-4.254

@<SCITEGIC>MOL_PROPERTY
W(SA)
SciTegic.value.DoubleValue
2.015

@<SCITEGIC>MOL_PROPERTY
Valence
SciTegic.value.DoubleValue
12.093

@<SCITEGIC>MOL_PROPERTY
Coulomb
SciTegic.value.DoubleValue
-8.058

@<SCITEGIC>MOL_PROPERTY
VdW
SciTegic.value.DoubleValue
2.339

@<SCITEGIC>MOL_PROPERTY
VdW6
SciTegic.value.DoubleValue
-9.683

@<SCITEGIC>MOL_PROPERTY
VdW12
SciTegic.value.DoubleValue
12.022

@<SCITEGIC>MOL_PROPERTY
Bond
SciTegic.value.DoubleValue
0.268

@<SCITEGIC>MOL_PROPERTY
Angle
SciTegic.value.DoubleValue
3.005

@<SCITEGIC>MOL_PROPERTY
Pdih
SciTegic.value.DoubleValue
8.820

@<SCITEGIC>MOL_PROPERTY
Idih
SciTegic.value.DoubleValue
0.000

@<SCITEGIC>MOL_PROPERTY
Tether
SciTegic.value.DoubleValue
0.000

@<TRIPOS>MOLECULE
guest-5_confgen4.mol2 : confsearch ligand conformer 589
          22          22           1
SMALL
USER_CHARGES
 
@<TRIPOS>ATOM
       1    C1      20.783651   17.868313   22.800292 C.3        1 MOL1        -0.1685
       2    H1      21.646504   17.467677   22.250993 H          1 MOL1         0.0832
       3    H2      20.444726   17.055278   23.456717 H          1 MOL1         0.0832
       4    C2      19.665465   18.186952   21.779283 C.3        1 MOL1        -0.1685
       5    H3      20.114699   18.562577   20.849996 H          1 MOL1         0.0832
       6    H4      19.175296   17.242255   21.507102 H          1 MOL1         0.0832
       7    C3      18.592512   19.185362   22.272706 C.3        1 MOL1        -0.1685
       8    H5      18.366827   19.026383   23.336008 H          1 MOL1         0.0832
       9    H6      17.660566   18.979522   21.729077 H          1 MOL1         0.0832
      10    C4      18.980526   20.661154   22.002905 C.3        1 MOL1        -0.1761
      11    H7      19.282291   20.766728   20.952815 H          1 MOL1         0.0832
      12    H8      18.084168   21.285318   22.112189 H          1 MOL1         0.0832
      13    C5      20.094987   21.248131   22.899102 C.3        1 MOL1         0.1218
      14    H9      20.367298   22.223112   22.469732 H          1 MOL1         0.0789
      15    C6      21.392991   20.405360   22.971606 C.3        1 MOL1        -0.1761
      16    H10     21.801087   20.258486   21.963451 H          1 MOL1         0.0832
      17    H11     22.137930   21.003177   23.512447 H          1 MOL1         0.0832
      18    C7      21.253582   19.040356   23.694636 C.3        1 MOL1        -0.1685
      19    H12     22.227049   18.767779   24.123916 H          1 MOL1         0.0832
      20    H13     20.576205   19.140166   24.553017 H          1 MOL1         0.0832
      21    O1      19.580665   21.468372   24.209010 O.3        1 MOL1        -0.5509
      22    H14     18.757310   21.987361   24.104493 H          1 MOL1         0.3779
@<TRIPOS>BOND
    1     1     2    1
    2     1     3    1
    3     1     4    1
    4     4     5    1
    5     4     6    1
    6     4     7    1
    7     7     8    1
    8     7     9    1
    9     7    10    1
   10    10    11    1
   11    10    12    1
   12    10    13    1
   13    13    14    1
   14    13    15    1
   15    15    16    1
   16    15    17    1
   17     1    18    1
   18    15    18    1
   19    18    19    1
   20    18    20    1
   21    13    21    1
   22    21    22    1
@<TRIPOS>SUBSTRUCTURE
       1 MOL1            1 RESIDUE      1      MOL     
@<SCITEGIC>MOL_PROPERTY
VConf Rank
SciTegic.value.IntegerValue
589

@<SCITEGIC>MOL_PROPERTY
Conf_Id
SciTegic.value.IntegerValue
41

@<SCITEGIC>MOL_PROPERTY
Delta U+W
SciTegic.value.DoubleValue
-2.114

@<SCITEGIC>MOL_PROPERTY
U+W
SciTegic.value.DoubleValue
4.310

@<SCITEGIC>MOL_PROPERTY
Grad RMS
SciTegic.value.DoubleValue
0.000000

@<SCITEGIC>MOL_PROPERTY
U
SciTegic.value.DoubleValue
6.598

@<SCITEGIC>MOL_PROPERTY
W
SciTegic.value.DoubleValue
-2.289

@<SCITEGIC>MOL_PROPERTY
W(PB)
SciTegic.value.DoubleValue
-4.294

@<SCITEGIC>MOL_PROPERTY
W(SA)
SciTegic.value.DoubleValue
2.005

@<SCITEGIC>MOL_PROPERTY
Valence
SciTegic.value.DoubleValue
12.082

@<SCITEGIC>MOL_PROPERTY
Coulomb
SciTegic.value.DoubleValue
-7.801

@<SCITEGIC>MOL_PROPERTY
VdW
SciTegic.value.DoubleValue
2.317

@<SCITEGIC>MOL_PROPERTY
VdW6
SciTegic.value.DoubleValue
-9.658

@<SCITEGIC>MOL_PROPERTY
VdW12
SciTegic.value.DoubleValue
11.975

@<SCITEGIC>MOL_PROPERTY
Bond
SciTegic.value.DoubleValue
0.267

@<SCITEGIC>MOL_PROPERTY
Angle
SciTegic.value.DoubleValue
3.051

@<SCITEGIC>MOL_PROPERTY
Pdih
SciTegic.value.DoubleValue
8.764

@<SCITEGIC>MOL_PROPERTY
Idih
SciTegic.value.DoubleValue
0.000

@<SCITEGIC>MOL_PROPERTY
Tether
SciTegic.value.DoubleValue
0.000

@<TRIPOS>MOLECULE
guest-5_confgen4.mol2 : confsearch ligand conformer 590
          22          22           1
SMALL
USER_CHARGES
 
@<TRIPOS>ATOM
       1    C1      21.630612   19.305959   23.294521 C.3        1 MOL1        -0.1685
       2    H1      22.602057   18.903767   23.612461 H          1 MOL1         0.0832
       3    H2      21.772047   20.388067   23.167184 H          1 MOL1         0.0832
       4    C2      20.607993   19.016755   24.416126 C.3        1 MOL1        -0.1685
       5    H3      20.434452   17.934300   24.485089 H          1 MOL1         0.0832
       6    H4      21.048837   19.312888   25.377646 H          1 MOL1         0.0832
       7    C3      19.255901   19.746396   24.258981 C.3        1 MOL1        -0.1685
       8    H5      19.403858   20.824979   24.402700 H          1 MOL1         0.0832
       9    H6      18.601697   19.427301   25.081369 H          1 MOL1         0.0832
      10    C4      18.517331   19.485687   22.918187 C.3        1 MOL1        -0.1761
      11    H7      18.437475   18.406521   22.735752 H          1 MOL1         0.0832
      12    H8      17.486197   19.844017   23.031969 H          1 MOL1         0.0832
      13    C5      19.109507   20.188061   21.669175 C.3        1 MOL1         0.1218
      14    H9      18.325218   20.174789   20.898466 H          1 MOL1         0.0789
      15    C6      20.349582   19.506986   21.033966 C.3        1 MOL1        -0.1761
      16    H10     20.000842   18.864941   20.214686 H          1 MOL1         0.0832
      17    H11     20.972181   20.273528   20.554116 H          1 MOL1         0.0832
      18    C7      21.248345   18.642808   21.952835 C.3        1 MOL1        -0.1685
      19    H12     20.766943   17.673655   22.141003 H          1 MOL1         0.0832
      20    H13     22.169250   18.411611   21.400422 H          1 MOL1         0.0832
      21    O1      19.406591   21.551567   21.958159 O.3        1 MOL1        -0.5509
      22    H14     19.736973   21.951046   21.127994 H          1 MOL1         0.3779
@<TRIPOS>BOND
    1     1     2    1
    2     1     3    1
    3     1     4    1
    4     4     5    1
    5     4     6    1
    6     4     7    1
    7     7     8    1
    8     7     9    1
    9     7    10    1
   10    10    11    1
   11    10    12    1
   12    10    13    1
   13    13    14    1
   14    13    15    1
   15    15    16    1
   16    15    17    1
   17     1    18    1
   18    15    18    1
   19    18    19    1
   20    18    20    1
   21    13    21    1
   22    21    22    1
@<TRIPOS>SUBSTRUCTURE
       1 MOL1            1 RESIDUE      1      MOL     
@<SCITEGIC>MOL_PROPERTY
VConf Rank
SciTegic.value.IntegerValue
590

@<SCITEGIC>MOL_PROPERTY
Conf_Id
SciTegic.value.IntegerValue
104

@<SCITEGIC>MOL_PROPERTY
Delta U+W
SciTegic.value.DoubleValue
-1.172

@<SCITEGIC>MOL_PROPERTY
U+W
SciTegic.value.DoubleValue
5.252

@<SCITEGIC>MOL_PROPERTY
Grad RMS
SciTegic.value.DoubleValue
0.000000

@<SCITEGIC>MOL_PROPERTY
U
SciTegic.value.DoubleValue
7.482

@<SCITEGIC>MOL_PROPERTY
W
SciTegic.value.DoubleValue
-2.230

@<SCITEGIC>MOL_PROPERTY
W(PB)
SciTegic.value.DoubleValue
-4.220

@<SCITEGIC>MOL_PROPERTY
W(SA)
SciTegic.value.DoubleValue
1.990

@<SCITEGIC>MOL_PROPERTY
Valence
SciTegic.value.DoubleValue
12.309

@<SCITEGIC>MOL_PROPERTY
Coulomb
SciTegic.value.DoubleValue
-7.084

@<SCITEGIC>MOL_PROPERTY
VdW
SciTegic.value.DoubleValue
2.258

@<SCITEGIC>MOL_PROPERTY
VdW6
SciTegic.value.DoubleValue
-9.770

@<SCITEGIC>MOL_PROPERTY
VdW12
SciTegic.value.DoubleValue
12.028

@<SCITEGIC>MOL_PROPERTY
Bond
SciTegic.value.DoubleValue
0.284

@<SCITEGIC>MOL_PROPERTY
Angle
SciTegic.value.DoubleValue
3.491

@<SCITEGIC>MOL_PROPERTY
Pdih
SciTegic.value.DoubleValue
8.535

@<SCITEGIC>MOL_PROPERTY
Idih
SciTegic.value.DoubleValue
0.000

@<SCITEGIC>MOL_PROPERTY
Tether
SciTegic.value.DoubleValue
0.000

@<TRIPOS>MOLECULE
guest-5_confgen4.mol2 : confsearch ligand conformer 591
          22          22           1
SMALL
USER_CHARGES
 
@<TRIPOS>ATOM
       1    C1      20.638198   18.530721   21.546918 C.3        1 MOL1        -0.1685
       2    H1      20.556784   17.669389   22.223647 H          1 MOL1         0.0832
       3    H2      21.058654   18.140226   20.610077 H          1 MOL1         0.0832
       4    C2      21.624792   19.581079   22.106260 C.3        1 MOL1        -0.1685
       5    H3      22.649729   19.247464   21.893059 H          1 MOL1         0.0832
       6    H4      21.510366   20.520284   21.549359 H          1 MOL1         0.0832
       7    C3      21.524205   19.853108   23.628612 C.3        1 MOL1        -0.1685
       8    H5      21.902711   20.865424   23.826767 H          1 MOL1         0.0832
       9    H6      22.216117   19.176679   24.148833 H          1 MOL1         0.0832
      10    C4      20.128179   19.692795   24.289379 C.3        1 MOL1        -0.1761
      11    H7      19.929632   18.625866   24.454296 H          1 MOL1         0.0832
      12    H8      20.175566   20.135015   25.292971 H          1 MOL1         0.0832
      13    C5      18.922166   20.313284   23.547416 C.3        1 MOL1         0.1218
      14    H9      18.125831   20.467680   24.289638 H          1 MOL1         0.0789
      15    C6      18.343444   19.381805   22.458520 C.3        1 MOL1        -0.1761
      16    H10     18.081475   18.421119   22.920597 H          1 MOL1         0.0832
      17    H11     17.394691   19.810641   22.110363 H          1 MOL1         0.0832
      18    C7      19.242809   19.117010   21.225711 C.3        1 MOL1        -0.1685
      19    H12     18.714989   18.411425   20.569763 H          1 MOL1         0.0832
      20    H13     19.352113   20.039403   20.639432 H          1 MOL1         0.0832
      21    O1      19.275351   21.566300   22.982280 O.3        1 MOL1        -0.5509
      22    H14     20.035908   21.360806   22.402960 H          1 MOL1         0.3779
@<TRIPOS>BOND
    1     1     2    1
    2     1     3    1
    3     1     4    1
    4     4     5    1
    5     4     6    1
    6     4     7    1
    7     7     8    1
    8     7     9    1
    9     7    10    1
   10    10    11    1
   11    10    12    1
   12    10    13    1
   13    13    14    1
   14    13    15    1
   15    15    16    1
   16    15    17    1
   17     1    18    1
   18    15    18    1
   19    18    19    1
   20    18    20    1
   21    13    21    1
   22    21    22    1
@<TRIPOS>SUBSTRUCTURE
       1 MOL1            1 RESIDUE      1      MOL     
@<SCITEGIC>MOL_PROPERTY
VConf Rank
SciTegic.value.IntegerValue
591

@<SCITEGIC>MOL_PROPERTY
Conf_Id
SciTegic.value.IntegerValue
99

@<SCITEGIC>MOL_PROPERTY
Delta U+W
SciTegic.value.DoubleValue
-3.852

@<SCITEGIC>MOL_PROPERTY
U+W
SciTegic.value.DoubleValue
2.572

@<SCITEGIC>MOL_PROPERTY
Grad RMS
SciTegic.value.DoubleValue
0.000000

@<SCITEGIC>MOL_PROPERTY
U
SciTegic.value.DoubleValue
3.922

@<SCITEGIC>MOL_PROPERTY
W
SciTegic.value.DoubleValue
-1.350

@<SCITEGIC>MOL_PROPERTY
W(PB)
SciTegic.value.DoubleValue
-3.345

@<SCITEGIC>MOL_PROPERTY
W(SA)
SciTegic.value.DoubleValue
1.995

@<SCITEGIC>MOL_PROPERTY
Valence
SciTegic.value.DoubleValue
12.571

@<SCITEGIC>MOL_PROPERTY
Coulomb
SciTegic.value.DoubleValue
-10.581

@<SCITEGIC>MOL_PROPERTY
VdW
SciTegic.value.DoubleValue
1.932

@<SCITEGIC>MOL_PROPERTY
VdW6
SciTegic.value.DoubleValue
-10.483

@<SCITEGIC>MOL_PROPERTY
VdW12
SciTegic.value.DoubleValue
12.415

@<SCITEGIC>MOL_PROPERTY
Bond
SciTegic.value.DoubleValue
0.268

@<SCITEGIC>MOL_PROPERTY
Angle
SciTegic.value.DoubleValue
3.728

@<SCITEGIC>MOL_PROPERTY
Pdih
SciTegic.value.DoubleValue
8.575

@<SCITEGIC>MOL_PROPERTY
Idih
SciTegic.value.DoubleValue
0.000

@<SCITEGIC>MOL_PROPERTY
Tether
SciTegic.value.DoubleValue
0.000

@<TRIPOS>MOLECULE
guest-5_confgen4.mol2 : confsearch ligand conformer 592
          22          22           1
SMALL
USER_CHARGES
 
@<TRIPOS>ATOM
       1    C1      19.977520   18.318558   21.605943 C.3        1 MOL1        -0.1685
       2    H1      19.747097   17.271750   21.364307 H          1 MOL1         0.0832
       3    H2      20.295251   18.765380   20.654391 H          1 MOL1         0.0832
       4    C2      21.156992   18.325464   22.622136 C.3        1 MOL1        -0.1685
       5    H3      21.437189   17.281651   22.820213 H          1 MOL1         0.0832
       6    H4      22.048031   18.775777   22.164618 H          1 MOL1         0.0832
       7    C3      20.874112   19.005397   23.986108 C.3        1 MOL1        -0.1685
       8    H5      21.703319   18.772404   24.667912 H          1 MOL1         0.0832
       9    H6      19.994978   18.545225   24.454013 H          1 MOL1         0.0832
      10    C4      20.703889   20.549709   23.955190 C.3        1 MOL1        -0.1761
      11    H7      20.138897   20.850370   24.846889 H          1 MOL1         0.0832
      12    H8      21.694214   21.010114   24.070424 H          1 MOL1         0.0832
      13    C5      20.034688   21.187654   22.712871 C.3        1 MOL1         0.1218
      14    H9      19.802901   22.229965   22.974856 H          1 MOL1         0.0789
      15    C6      18.711446   20.538225   22.238092 C.3        1 MOL1        -0.1761
      16    H10     17.910906   20.837714   22.926701 H          1 MOL1         0.0832
      17    H11     18.448352   20.991215   21.272908 H          1 MOL1         0.0832
      18    C7      18.665898   18.992647   22.083445 C.3        1 MOL1        -0.1685
      19    H12     18.336184   18.535845   23.024821 H          1 MOL1         0.0832
      20    H13     17.870532   18.750149   21.365593 H          1 MOL1         0.0832
      21    O1      20.960578   21.221962   21.638258 O.3        1 MOL1        -0.5509
      22    H14     21.132897   20.278726   21.444495 H          1 MOL1         0.3779
@<TRIPOS>BOND
    1     1     2    1
    2     1     3    1
    3     1     4    1
    4     4     5    1
    5     4     6    1
    6     4     7    1
    7     7     8    1
    8     7     9    1
    9     7    10    1
   10    10    11    1
   11    10    12    1
   12    10    13    1
   13    13    14    1
   14    13    15    1
   15    15    16    1
   16    15    17    1
   17     1    18    1
   18    15    18    1
   19    18    19    1
   20    18    20    1
   21    13    21    1
   22    21    22    1
@<TRIPOS>SUBSTRUCTURE
       1 MOL1            1 RESIDUE      1      MOL     
@<SCITEGIC>MOL_PROPERTY
VConf Rank
SciTegic.value.IntegerValue
592

@<SCITEGIC>MOL_PROPERTY
Conf_Id
SciTegic.value.IntegerValue
98

@<SCITEGIC>MOL_PROPERTY
Delta U+W
SciTegic.value.DoubleValue
0.930

@<SCITEGIC>MOL_PROPERTY
U+W
SciTegic.value.DoubleValue
7.353

@<SCITEGIC>MOL_PROPERTY
Grad RMS
SciTegic.value.DoubleValue
0.000000

@<SCITEGIC>MOL_PROPERTY
U
SciTegic.value.DoubleValue
8.455

@<SCITEGIC>MOL_PROPERTY
W
SciTegic.value.DoubleValue
-1.102

@<SCITEGIC>MOL_PROPERTY
W(PB)
SciTegic.value.DoubleValue
-3.101

@<SCITEGIC>MOL_PROPERTY
W(SA)
SciTegic.value.DoubleValue
2.000

@<SCITEGIC>MOL_PROPERTY
Valence
SciTegic.value.DoubleValue
15.601

@<SCITEGIC>MOL_PROPERTY
Coulomb
SciTegic.value.DoubleValue
-10.573

@<SCITEGIC>MOL_PROPERTY
VdW
SciTegic.value.DoubleValue
3.427

@<SCITEGIC>MOL_PROPERTY
VdW6
SciTegic.value.DoubleValue
-11.360

@<SCITEGIC>MOL_PROPERTY
VdW12
SciTegic.value.DoubleValue
14.787

@<SCITEGIC>MOL_PROPERTY
Bond
SciTegic.value.DoubleValue
0.471

@<SCITEGIC>MOL_PROPERTY
Angle
SciTegic.value.DoubleValue
5.445

@<SCITEGIC>MOL_PROPERTY
Pdih
SciTegic.value.DoubleValue
9.685

@<SCITEGIC>MOL_PROPERTY
Idih
SciTegic.value.DoubleValue
0.000

@<SCITEGIC>MOL_PROPERTY
Tether
SciTegic.value.DoubleValue
0.000

@<TRIPOS>MOLECULE
guest-5_confgen4.mol2 : confsearch ligand conformer 593
          22          22           1
SMALL
USER_CHARGES
 
@<TRIPOS>ATOM
       1    C1      21.474733   20.441645   22.693285 C.3        1 MOL1        -0.1685
       2    H1      21.523905   20.219313   23.767031 H          1 MOL1         0.0832
       3    H2      22.393258   21.003666   22.476134 H          1 MOL1         0.0832
       4    C2      20.257015   21.355358   22.402680 C.3        1 MOL1        -0.1685
       5    H3      20.385031   22.274016   22.991370 H          1 MOL1         0.0832
       6    H4      20.276917   21.671024   21.350738 H          1 MOL1         0.0832
       7    C3      18.859131   20.761523   22.731199 C.3        1 MOL1        -0.1685
       8    H5      18.358191   20.444745   21.807226 H          1 MOL1         0.0832
       9    H6      18.229940   21.567998   23.131637 H          1 MOL1         0.0832
      10    C4      18.866001   19.586628   23.744750 C.3        1 MOL1        -0.1761
      11    H7      19.423105   19.887491   24.640709 H          1 MOL1         0.0832
      12    H8      17.836983   19.426105   24.093664 H          1 MOL1         0.0832
      13    C5      19.435741   18.237026   23.217642 C.3        1 MOL1         0.1218
      14    H9      20.121352   17.838193   23.979179 H          1 MOL1         0.0789
      15    C6      20.196826   18.303728   21.869844 C.3        1 MOL1        -0.1761
      16    H10     20.439373   17.282732   21.547670 H          1 MOL1         0.0832
      17    H11     19.533795   18.698613   21.090713 H          1 MOL1         0.0832
      18    C7      21.513146   19.120242   21.890129 C.3        1 MOL1        -0.1685
      19    H12     22.314436   18.492535   22.303328 H          1 MOL1         0.0832
      20    H13     21.804485   19.336996   20.853399 H          1 MOL1         0.0832
      21    O1      18.355364   17.325603   23.052508 O.3        1 MOL1        -0.5509
      22    H14     18.746524   16.470623   22.776499 H          1 MOL1         0.3779
@<TRIPOS>BOND
    1     1     2    1
    2     1     3    1
    3     1     4    1
    4     4     5    1
    5     4     6    1
    6     4     7    1
    7     7     8    1
    8     7     9    1
    9     7    10    1
   10    10    11    1
   11    10    12    1
   12    10    13    1
   13    13    14    1
   14    13    15    1
   15    15    16    1
   16    15    17    1
   17     1    18    1
   18    15    18    1
   19    18    19    1
   20    18    20    1
   21    13    21    1
   22    21    22    1
@<TRIPOS>SUBSTRUCTURE
       1 MOL1            1 RESIDUE      1      MOL     
@<SCITEGIC>MOL_PROPERTY
VConf Rank
SciTegic.value.IntegerValue
593

@<SCITEGIC>MOL_PROPERTY
Conf_Id
SciTegic.value.IntegerValue
141

@<SCITEGIC>MOL_PROPERTY
Delta U+W
SciTegic.value.DoubleValue
0.000

@<SCITEGIC>MOL_PROPERTY
U+W
SciTegic.value.DoubleValue
6.423

@<SCITEGIC>MOL_PROPERTY
Grad RMS
SciTegic.value.DoubleValue
0.000000

@<SCITEGIC>MOL_PROPERTY
U
SciTegic.value.DoubleValue
8.781

@<SCITEGIC>MOL_PROPERTY
W
SciTegic.value.DoubleValue
-2.358

@<SCITEGIC>MOL_PROPERTY
W(PB)
SciTegic.value.DoubleValue
-4.373

@<SCITEGIC>MOL_PROPERTY
W(SA)
SciTegic.value.DoubleValue
2.015

@<SCITEGIC>MOL_PROPERTY
Valence
SciTegic.value.DoubleValue
13.328

@<SCITEGIC>MOL_PROPERTY
Coulomb
SciTegic.value.DoubleValue
-8.387

@<SCITEGIC>MOL_PROPERTY
VdW
SciTegic.value.DoubleValue
3.840

@<SCITEGIC>MOL_PROPERTY
VdW6
SciTegic.value.DoubleValue
-9.744

@<SCITEGIC>MOL_PROPERTY
VdW12
SciTegic.value.DoubleValue
13.584

@<SCITEGIC>MOL_PROPERTY
Bond
SciTegic.value.DoubleValue
0.436

@<SCITEGIC>MOL_PROPERTY
Angle
SciTegic.value.DoubleValue
3.478

@<SCITEGIC>MOL_PROPERTY
Pdih
SciTegic.value.DoubleValue
9.415

@<SCITEGIC>MOL_PROPERTY
Idih
SciTegic.value.DoubleValue
0.000

@<SCITEGIC>MOL_PROPERTY
Tether
SciTegic.value.DoubleValue
0.000

@<TRIPOS>MOLECULE
guest-5_confgen4.mol2 : confsearch ligand conformer 594
          22          22           1
SMALL
USER_CHARGES
 
@<TRIPOS>ATOM
       1    C1      20.304519   20.604812   24.061459 C.3        1 MOL1        -0.1685
       2    H1      19.477886   20.099468   24.579062 H          1 MOL1         0.0832
       3    H2      20.743851   21.296101   24.793587 H          1 MOL1         0.0832
       4    C2      19.780874   21.448651   22.874284 C.3        1 MOL1        -0.1685
       5    H3      19.205652   22.295168   23.273512 H          1 MOL1         0.0832
       6    H4      20.631833   21.891989   22.339308 H          1 MOL1         0.0832
       7    C3      18.885189   20.688311   21.869315 C.3        1 MOL1        -0.1685
       8    H5      18.637204   21.372212   21.046145 H          1 MOL1         0.0832
       9    H6      17.929145   20.438211   22.349303 H          1 MOL1         0.0832
      10    C4      19.514144   19.405203   21.273302 C.3        1 MOL1        -0.1761
      11    H7      18.893219   19.095566   20.422385 H          1 MOL1         0.0832
      12    H8      20.510344   19.616580   20.863543 H          1 MOL1         0.0832
      13    C5      19.582913   18.245733   22.292383 C.3        1 MOL1         0.1218
      14    H9      18.717710   18.327683   22.965846 H          1 MOL1         0.0789
      15    C6      20.866778   18.222666   23.152880 C.3        1 MOL1        -0.1761
      16    H10     20.669052   17.587284   24.025831 H          1 MOL1         0.0832
      17    H11     21.669988   17.724198   22.593870 H          1 MOL1         0.0832
      18    C7      21.397167   19.592641   23.644713 C.3        1 MOL1        -0.1685
      19    H12     22.061322   19.411938   24.500907 H          1 MOL1         0.0832
      20    H13     22.033009   20.040483   22.868922 H          1 MOL1         0.0832
      21    O1      19.501395   17.011994   21.589205 O.3        1 MOL1        -0.5509
      22    H14     18.645863   17.015616   21.111010 H          1 MOL1         0.3779
@<TRIPOS>BOND
    1     1     2    1
    2     1     3    1
    3     1     4    1
    4     4     5    1
    5     4     6    1
    6     4     7    1
    7     7     8    1
    8     7     9    1
    9     7    10    1
   10    10    11    1
   11    10    12    1
   12    10    13    1
   13    13    14    1
   14    13    15    1
   15    15    16    1
   16    15    17    1
   17     1    18    1
   18    15    18    1
   19    18    19    1
   20    18    20    1
   21    13    21    1
   22    21    22    1
@<TRIPOS>SUBSTRUCTURE
       1 MOL1            1 RESIDUE      1      MOL     
@<SCITEGIC>MOL_PROPERTY
VConf Rank
SciTegic.value.IntegerValue
594

@<SCITEGIC>MOL_PROPERTY
Conf_Id
SciTegic.value.IntegerValue
144

@<SCITEGIC>MOL_PROPERTY
Delta U+W
SciTegic.value.DoubleValue
-3.291

@<SCITEGIC>MOL_PROPERTY
U+W
SciTegic.value.DoubleValue
3.132

@<SCITEGIC>MOL_PROPERTY
Grad RMS
SciTegic.value.DoubleValue
0.000000

@<SCITEGIC>MOL_PROPERTY
U
SciTegic.value.DoubleValue
5.411

@<SCITEGIC>MOL_PROPERTY
W
SciTegic.value.DoubleValue
-2.279

@<SCITEGIC>MOL_PROPERTY
W(PB)
SciTegic.value.DoubleValue
-4.300

@<SCITEGIC>MOL_PROPERTY
W(SA)
SciTegic.value.DoubleValue
2.021

@<SCITEGIC>MOL_PROPERTY
Valence
SciTegic.value.DoubleValue
11.909

@<SCITEGIC>MOL_PROPERTY
Coulomb
SciTegic.value.DoubleValue
-8.733

@<SCITEGIC>MOL_PROPERTY
VdW
SciTegic.value.DoubleValue
2.236

@<SCITEGIC>MOL_PROPERTY
VdW6
SciTegic.value.DoubleValue
-8.936

@<SCITEGIC>MOL_PROPERTY
VdW12
SciTegic.value.DoubleValue
11.172

@<SCITEGIC>MOL_PROPERTY
Bond
SciTegic.value.DoubleValue
0.223

@<SCITEGIC>MOL_PROPERTY
Angle
SciTegic.value.DoubleValue
2.457

@<SCITEGIC>MOL_PROPERTY
Pdih
SciTegic.value.DoubleValue
9.228

@<SCITEGIC>MOL_PROPERTY
Idih
SciTegic.value.DoubleValue
0.000

@<SCITEGIC>MOL_PROPERTY
Tether
SciTegic.value.DoubleValue
0.000

@<TRIPOS>MOLECULE
guest-5_confgen4.mol2 : confsearch ligand conformer 595
          22          22           1
SMALL
USER_CHARGES
 
@<TRIPOS>ATOM
       1    C1      19.445970   20.981432   23.501122 C.3        1 MOL1        -0.1685
       2    H1      19.071608   21.980071   23.764684 H          1 MOL1         0.0832
       3    H2      19.707171   20.494484   24.450510 H          1 MOL1         0.0832
       4    C2      20.697777   21.159563   22.610435 C.3        1 MOL1        -0.1685
       5    H3      20.385567   21.334857   21.571892 H          1 MOL1         0.0832
       6    H4      21.224241   22.074085   22.916185 H          1 MOL1         0.0832
       7    C3      21.709248   19.988847   22.658104 C.3        1 MOL1        -0.1685
       8    H5      22.365864   20.119076   23.529202 H          1 MOL1         0.0832
       9    H6      22.362687   20.065029   21.778200 H          1 MOL1         0.0832
      10    C4      21.107312   18.563243   22.716983 C.3        1 MOL1        -0.1761
      11    H7      21.890543   17.855234   22.414092 H          1 MOL1         0.0832
      12    H8      20.869021   18.315370   23.759418 H          1 MOL1         0.0832
      13    C5      19.852294   18.349326   21.841333 C.3        1 MOL1         0.1218
      14    H9      19.935189   18.951780   20.925556 H          1 MOL1         0.0789
      15    C6      18.544454   18.709290   22.582250 C.3        1 MOL1        -0.1761
      16    H10     17.695960   18.303241   22.015406 H          1 MOL1         0.0832
      17    H11     18.525835   18.206442   23.557895 H          1 MOL1         0.0832
      18    C7      18.301056   20.223362   22.787335 C.3        1 MOL1        -0.1685
      19    H12     18.101699   20.694927   21.815322 H          1 MOL1         0.0832
      20    H13     17.380435   20.346480   23.373924 H          1 MOL1         0.0832
      21    O1      19.786590   16.975542   21.482709 O.3        1 MOL1        -0.5509
      22    H14     19.715552   16.473947   22.320872 H          1 MOL1         0.3779
@<TRIPOS>BOND
    1     1     2    1
    2     1     3    1
    3     1     4    1
    4     4     5    1
    5     4     6    1
    6     4     7    1
    7     7     8    1
    8     7     9    1
    9     7    10    1
   10    10    11    1
   11    10    12    1
   12    10    13    1
   13    13    14    1
   14    13    15    1
   15    15    16    1
   16    15    17    1
   17     1    18    1
   18    15    18    1
   19    18    19    1
   20    18    20    1
   21    13    21    1
   22    21    22    1
@<TRIPOS>SUBSTRUCTURE
       1 MOL1            1 RESIDUE      1      MOL     
@<SCITEGIC>MOL_PROPERTY
VConf Rank
SciTegic.value.IntegerValue
595

@<SCITEGIC>MOL_PROPERTY
Conf_Id
SciTegic.value.IntegerValue
76

@<SCITEGIC>MOL_PROPERTY
Delta U+W
SciTegic.value.DoubleValue
-3.175

@<SCITEGIC>MOL_PROPERTY
U+W
SciTegic.value.DoubleValue
3.248

@<SCITEGIC>MOL_PROPERTY
Grad RMS
SciTegic.value.DoubleValue
0.000000

@<SCITEGIC>MOL_PROPERTY
U
SciTegic.value.DoubleValue
5.336

@<SCITEGIC>MOL_PROPERTY
W
SciTegic.value.DoubleValue
-2.088

@<SCITEGIC>MOL_PROPERTY
W(PB)
SciTegic.value.DoubleValue
-4.098

@<SCITEGIC>MOL_PROPERTY
W(SA)
SciTegic.value.DoubleValue
2.010

@<SCITEGIC>MOL_PROPERTY
Valence
SciTegic.value.DoubleValue
12.390

@<SCITEGIC>MOL_PROPERTY
Coulomb
SciTegic.value.DoubleValue
-9.270

@<SCITEGIC>MOL_PROPERTY
VdW
SciTegic.value.DoubleValue
2.216

@<SCITEGIC>MOL_PROPERTY
VdW6
SciTegic.value.DoubleValue
-8.967

@<SCITEGIC>MOL_PROPERTY
VdW12
SciTegic.value.DoubleValue
11.183

@<SCITEGIC>MOL_PROPERTY
Bond
SciTegic.value.DoubleValue
0.218

@<SCITEGIC>MOL_PROPERTY
Angle
SciTegic.value.DoubleValue
2.426

@<SCITEGIC>MOL_PROPERTY
Pdih
SciTegic.value.DoubleValue
9.745

@<SCITEGIC>MOL_PROPERTY
Idih
SciTegic.value.DoubleValue
0.000

@<SCITEGIC>MOL_PROPERTY
Tether
SciTegic.value.DoubleValue
0.000

@<TRIPOS>MOLECULE
guest-5_confgen4.mol2 : confsearch ligand conformer 596
          22          22           1
SMALL
USER_CHARGES
 
@<TRIPOS>ATOM
       1    C1      20.130456   17.816001   23.380687 C.3        1 MOL1        -0.1685
       2    H1      19.476806   17.383744   24.150543 H          1 MOL1         0.0832
       3    H2      20.774848   16.993779   23.040799 H          1 MOL1         0.0832
       4    C2      21.010755   18.900634   24.046509 C.3        1 MOL1        -0.1685
       5    H3      20.425872   19.428590   24.811789 H          1 MOL1         0.0832
       6    H4      21.818691   18.394233   24.592021 H          1 MOL1         0.0832
       7    C3      21.630524   19.929266   23.072166 C.3        1 MOL1        -0.1685
       8    H5      21.926207   19.449611   22.129119 H          1 MOL1         0.0832
       9    H6      22.556317   20.311251   23.523039 H          1 MOL1         0.0832
      10    C4      20.700412   21.140241   22.806623 C.3        1 MOL1        -0.1761
      11    H7      20.364055   21.553971   23.765896 H          1 MOL1         0.0832
      12    H8      21.288970   21.936546   22.332376 H          1 MOL1         0.0832
      13    C5      19.463419   20.869940   21.920122 C.3        1 MOL1         0.1218
      14    H9      18.827019   21.764469   21.982653 H          1 MOL1         0.0789
      15    C6      18.594809   19.661599   22.351302 C.3        1 MOL1        -0.1761
      16    H10     18.262681   19.793662   23.389150 H          1 MOL1         0.0832
      17    H11     17.680708   19.677489   21.743885 H          1 MOL1         0.0832
      18    C7      19.265867   18.273728   22.181856 C.3        1 MOL1        -0.1685
      19    H12     18.483195   17.519583   22.023388 H          1 MOL1         0.0832
      20    H13     19.873660   18.258211   21.267642 H          1 MOL1         0.0832
      21    O1      19.879801   20.715596   20.567042 O.3        1 MOL1        -0.5509
      22    H14     19.077148   20.495665   20.051618 H          1 MOL1         0.3779
@<TRIPOS>BOND
    1     1     2    1
    2     1     3    1
    3     1     4    1
    4     4     5    1
    5     4     6    1
    6     4     7    1
    7     7     8    1
    8     7     9    1
    9     7    10    1
   10    10    11    1
   11    10    12    1
   12    10    13    1
   13    13    14    1
   14    13    15    1
   15    15    16    1
   16    15    17    1
   17     1    18    1
   18    15    18    1
   19    18    19    1
   20    18    20    1
   21    13    21    1
   22    21    22    1
@<TRIPOS>SUBSTRUCTURE
       1 MOL1            1 RESIDUE      1      MOL     
@<SCITEGIC>MOL_PROPERTY
VConf Rank
SciTegic.value.IntegerValue
596

@<SCITEGIC>MOL_PROPERTY
Conf_Id
SciTegic.value.IntegerValue
95

@<SCITEGIC>MOL_PROPERTY
Delta U+W
SciTegic.value.DoubleValue
-2.289

@<SCITEGIC>MOL_PROPERTY
U+W
SciTegic.value.DoubleValue
4.134

@<SCITEGIC>MOL_PROPERTY
Grad RMS
SciTegic.value.DoubleValue
0.000000

@<SCITEGIC>MOL_PROPERTY
U
SciTegic.value.DoubleValue
6.373

@<SCITEGIC>MOL_PROPERTY
W
SciTegic.value.DoubleValue
-2.240

@<SCITEGIC>MOL_PROPERTY
W(PB)
SciTegic.value.DoubleValue
-4.254

@<SCITEGIC>MOL_PROPERTY
W(SA)
SciTegic.value.DoubleValue
2.015

@<SCITEGIC>MOL_PROPERTY
Valence
SciTegic.value.DoubleValue
12.093

@<SCITEGIC>MOL_PROPERTY
Coulomb
SciTegic.value.DoubleValue
-8.058

@<SCITEGIC>MOL_PROPERTY
VdW
SciTegic.value.DoubleValue
2.339

@<SCITEGIC>MOL_PROPERTY
VdW6
SciTegic.value.DoubleValue
-9.683

@<SCITEGIC>MOL_PROPERTY
VdW12
SciTegic.value.DoubleValue
12.022

@<SCITEGIC>MOL_PROPERTY
Bond
SciTegic.value.DoubleValue
0.268

@<SCITEGIC>MOL_PROPERTY
Angle
SciTegic.value.DoubleValue
3.005

@<SCITEGIC>MOL_PROPERTY
Pdih
SciTegic.value.DoubleValue
8.820

@<SCITEGIC>MOL_PROPERTY
Idih
SciTegic.value.DoubleValue
0.000

@<SCITEGIC>MOL_PROPERTY
Tether
SciTegic.value.DoubleValue
0.000

@<TRIPOS>MOLECULE
guest-5_confgen4.mol2 : confsearch ligand conformer 597
          22          22           1
SMALL
USER_CHARGES
 
@<TRIPOS>ATOM
       1    C1      18.888553   18.178857   23.169990 C.3        1 MOL1        -0.1685
       2    H1      18.206656   17.622044   22.512929 H          1 MOL1         0.0832
       3    H2      18.803973   17.704980   24.157450 H          1 MOL1         0.0832
       4    C2      18.381560   19.637430   23.269239 C.3        1 MOL1        -0.1685
       5    H3      17.965587   19.946899   22.300903 H          1 MOL1         0.0832
       6    H4      17.536434   19.655857   23.970825 H          1 MOL1         0.0832
       7    C3      19.438275   20.668734   23.728894 C.3        1 MOL1        -0.1685
       8    H5      20.098752   20.240152   24.494994 H          1 MOL1         0.0832
       9    H6      18.911903   21.502922   24.212101 H          1 MOL1         0.0832
      10    C4      20.259892   21.248356   22.549788 C.3        1 MOL1        -0.1761
      11    H7      19.571333   21.589153   21.765798 H          1 MOL1         0.0832
      12    H8      20.778699   22.152271   22.894403 H          1 MOL1         0.0832
      13    C5      21.302772   20.300611   21.914244 C.3        1 MOL1         0.1218
      14    H9      21.663978   20.793174   20.999907 H          1 MOL1         0.0789
      15    C6      20.760442   18.910520   21.497282 C.3        1 MOL1        -0.1761
      16    H10     19.926677   19.029360   20.793575 H          1 MOL1         0.0832
      17    H11     21.557513   18.406725   20.935412 H          1 MOL1         0.0832
      18    C7      20.340559   17.987281   22.670641 C.3        1 MOL1        -0.1685
      19    H12     20.453204   16.941638   22.354165 H          1 MOL1         0.0832
      20    H13     21.036090   18.112089   23.511045 H          1 MOL1         0.0832
      21    O1      22.406272   20.149235   22.802087 O.3        1 MOL1        -0.5509
      22    H14     22.697214   21.051528   23.045820 H          1 MOL1         0.3779
@<TRIPOS>BOND
    1     1     2    1
    2     1     3    1
    3     1     4    1
    4     4     5    1
    5     4     6    1
    6     4     7    1
    7     7     8    1
    8     7     9    1
    9     7    10    1
   10    10    11    1
   11    10    12    1
   12    10    13    1
   13    13    14    1
   14    13    15    1
   15    15    16    1
   16    15    17    1
   17     1    18    1
   18    15    18    1
   19    18    19    1
   20    18    20    1
   21    13    21    1
   22    21    22    1
@<TRIPOS>SUBSTRUCTURE
       1 MOL1            1 RESIDUE      1      MOL     
@<SCITEGIC>MOL_PROPERTY
VConf Rank
SciTegic.value.IntegerValue
597

@<SCITEGIC>MOL_PROPERTY
Conf_Id
SciTegic.value.IntegerValue
41

@<SCITEGIC>MOL_PROPERTY
Delta U+W
SciTegic.value.DoubleValue
-2.114

@<SCITEGIC>MOL_PROPERTY
U+W
SciTegic.value.DoubleValue
4.310

@<SCITEGIC>MOL_PROPERTY
Grad RMS
SciTegic.value.DoubleValue
0.000000

@<SCITEGIC>MOL_PROPERTY
U
SciTegic.value.DoubleValue
6.598

@<SCITEGIC>MOL_PROPERTY
W
SciTegic.value.DoubleValue
-2.289

@<SCITEGIC>MOL_PROPERTY
W(PB)
SciTegic.value.DoubleValue
-4.294

@<SCITEGIC>MOL_PROPERTY
W(SA)
SciTegic.value.DoubleValue
2.005

@<SCITEGIC>MOL_PROPERTY
Valence
SciTegic.value.DoubleValue
12.082

@<SCITEGIC>MOL_PROPERTY
Coulomb
SciTegic.value.DoubleValue
-7.801

@<SCITEGIC>MOL_PROPERTY
VdW
SciTegic.value.DoubleValue
2.317

@<SCITEGIC>MOL_PROPERTY
VdW6
SciTegic.value.DoubleValue
-9.658

@<SCITEGIC>MOL_PROPERTY
VdW12
SciTegic.value.DoubleValue
11.975

@<SCITEGIC>MOL_PROPERTY
Bond
SciTegic.value.DoubleValue
0.267

@<SCITEGIC>MOL_PROPERTY
Angle
SciTegic.value.DoubleValue
3.051

@<SCITEGIC>MOL_PROPERTY
Pdih
SciTegic.value.DoubleValue
8.764

@<SCITEGIC>MOL_PROPERTY
Idih
SciTegic.value.DoubleValue
0.000

@<SCITEGIC>MOL_PROPERTY
Tether
SciTegic.value.DoubleValue
0.000

@<TRIPOS>MOLECULE
guest-5_confgen4.mol2 : confsearch ligand conformer 598
          22          22           1
SMALL
USER_CHARGES
 
@<TRIPOS>ATOM
       1    C1      19.018887   19.105643   21.510289 C.3        1 MOL1        -0.1685
       2    H1      18.535051   18.765115   20.584820 H          1 MOL1         0.0832
       3    H2      18.252779   19.052176   22.296034 H          1 MOL1         0.0832
       4    C2      19.479857   20.564580   21.294891 C.3        1 MOL1        -0.1685
       5    H3      20.288169   20.588661   20.551498 H          1 MOL1         0.0832
       6    H4      18.649441   21.133554   20.855302 H          1 MOL1         0.0832
       7    C3      19.938170   21.291512   22.578145 C.3        1 MOL1        -0.1685
       8    H5      19.073003   21.454743   23.234446 H          1 MOL1         0.0832
       9    H6      20.284582   22.294099   22.293640 H          1 MOL1         0.0832
      10    C4      21.076216   20.586707   23.365093 C.3        1 MOL1        -0.1761
      11    H7      21.910976   20.353236   22.692096 H          1 MOL1         0.0832
      12    H8      21.473652   21.307517   24.091083 H          1 MOL1         0.0832
      13    C5      20.668693   19.317967   24.157719 C.3        1 MOL1         0.1218
      14    H9      21.468054   19.133371   24.889991 H          1 MOL1         0.0789
      15    C6      20.535490   18.014922   23.327376 C.3        1 MOL1        -0.1761
      16    H10     21.484361   17.467866   23.401098 H          1 MOL1         0.0832
      17    H11     19.789779   17.363280   23.801454 H          1 MOL1         0.0832
      18    C7      20.190954   18.149469   21.823350 C.3        1 MOL1        -0.1685
      19    H12     21.083191   18.458958   21.262507 H          1 MOL1         0.0832
      20    H13     19.938511   17.149176   21.446038 H          1 MOL1         0.0832
      21    O1      19.464361   19.549312   24.883656 O.3        1 MOL1        -0.5509
      22    H14     19.279711   18.733767   25.392283 H          1 MOL1         0.3779
@<TRIPOS>BOND
    1     1     2    1
    2     1     3    1
    3     1     4    1
    4     4     5    1
    5     4     6    1
    6     4     7    1
    7     7     8    1
    8     7     9    1
    9     7    10    1
   10    10    11    1
   11    10    12    1
   12    10    13    1
   13    13    14    1
   14    13    15    1
   15    15    16    1
   16    15    17    1
   17     1    18    1
   18    15    18    1
   19    18    19    1
   20    18    20    1
   21    13    21    1
   22    21    22    1
@<TRIPOS>SUBSTRUCTURE
       1 MOL1            1 RESIDUE      1      MOL     
@<SCITEGIC>MOL_PROPERTY
VConf Rank
SciTegic.value.IntegerValue
598

@<SCITEGIC>MOL_PROPERTY
Conf_Id
SciTegic.value.IntegerValue
104

@<SCITEGIC>MOL_PROPERTY
Delta U+W
SciTegic.value.DoubleValue
-1.172

@<SCITEGIC>MOL_PROPERTY
U+W
SciTegic.value.DoubleValue
5.252

@<SCITEGIC>MOL_PROPERTY
Grad RMS
SciTegic.value.DoubleValue
0.000000

@<SCITEGIC>MOL_PROPERTY
U
SciTegic.value.DoubleValue
7.482

@<SCITEGIC>MOL_PROPERTY
W
SciTegic.value.DoubleValue
-2.230

@<SCITEGIC>MOL_PROPERTY
W(PB)
SciTegic.value.DoubleValue
-4.220

@<SCITEGIC>MOL_PROPERTY
W(SA)
SciTegic.value.DoubleValue
1.990

@<SCITEGIC>MOL_PROPERTY
Valence
SciTegic.value.DoubleValue
12.309

@<SCITEGIC>MOL_PROPERTY
Coulomb
SciTegic.value.DoubleValue
-7.084

@<SCITEGIC>MOL_PROPERTY
VdW
SciTegic.value.DoubleValue
2.258

@<SCITEGIC>MOL_PROPERTY
VdW6
SciTegic.value.DoubleValue
-9.770

@<SCITEGIC>MOL_PROPERTY
VdW12
SciTegic.value.DoubleValue
12.028

@<SCITEGIC>MOL_PROPERTY
Bond
SciTegic.value.DoubleValue
0.284

@<SCITEGIC>MOL_PROPERTY
Angle
SciTegic.value.DoubleValue
3.491

@<SCITEGIC>MOL_PROPERTY
Pdih
SciTegic.value.DoubleValue
8.535

@<SCITEGIC>MOL_PROPERTY
Idih
SciTegic.value.DoubleValue
0.000

@<SCITEGIC>MOL_PROPERTY
Tether
SciTegic.value.DoubleValue
0.000

@<TRIPOS>MOLECULE
guest-5_confgen4.mol2 : confsearch ligand conformer 599
          22          22           1
SMALL
USER_CHARGES
 
@<TRIPOS>ATOM
       1    C1      21.142784   18.848126   21.671519 C.3        1 MOL1        -0.1685
       2    H1      21.227485   17.962268   22.315385 H          1 MOL1         0.0832
       3    H2      21.828122   18.676765   20.830159 H          1 MOL1         0.0832
       4    C2      21.615314   20.118340   22.414996 C.3        1 MOL1        -0.1685
       5    H3      22.713634   20.144987   22.399786 H          1 MOL1         0.0832
       6    H4      21.301989   21.007112   21.851747 H          1 MOL1         0.0832
       7    C3      21.160794   20.240367   23.891544 C.3        1 MOL1        -0.1685
       8    H5      21.146004   21.304715   24.164049 H          1 MOL1         0.0832
       9    H6      21.930808   19.786987   24.530647 H          1 MOL1         0.0832
      10    C4      19.799330   19.598031   24.272366 C.3        1 MOL1        -0.1761
      11    H7      19.934026   18.515027   24.390327 H          1 MOL1         0.0832
      12    H8      19.519354   19.963279   25.268964 H          1 MOL1         0.0832
      13    C5      18.610125   19.849238   23.317029 C.3        1 MOL1         0.1218
      14    H9      17.687866   19.690488   23.894193 H          1 MOL1         0.0789
      15    C6      18.572034   18.857535   22.132401 C.3        1 MOL1        -0.1761
      16    H10     18.560012   17.834585   22.530509 H          1 MOL1         0.0832
      17    H11     17.613736   18.983188   21.611708 H          1 MOL1         0.0832
      18    C7      19.713726   18.978038   21.092782 C.3        1 MOL1        -0.1685
      19    H12     19.571653   18.186832   20.344105 H          1 MOL1         0.0832
      20    H13     19.618787   19.924406   20.543370 H          1 MOL1         0.0832
      21    O1      18.629761   21.184601   22.836834 O.3        1 MOL1        -0.5509
      22    H14     19.506364   21.272607   22.412441 H          1 MOL1         0.3779
@<TRIPOS>BOND
    1     1     2    1
    2     1     3    1
    3     1     4    1
    4     4     5    1
    5     4     6    1
    6     4     7    1
    7     7     8    1
    8     7     9    1
    9     7    10    1
   10    10    11    1
   11    10    12    1
   12    10    13    1
   13    13    14    1
   14    13    15    1
   15    15    16    1
   16    15    17    1
   17     1    18    1
   18    15    18    1
   19    18    19    1
   20    18    20    1
   21    13    21    1
   22    21    22    1
@<TRIPOS>SUBSTRUCTURE
       1 MOL1            1 RESIDUE      1      MOL     
@<SCITEGIC>MOL_PROPERTY
VConf Rank
SciTegic.value.IntegerValue
599

@<SCITEGIC>MOL_PROPERTY
Conf_Id
SciTegic.value.IntegerValue
99

@<SCITEGIC>MOL_PROPERTY
Delta U+W
SciTegic.value.DoubleValue
-3.852

@<SCITEGIC>MOL_PROPERTY
U+W
SciTegic.value.DoubleValue
2.572

@<SCITEGIC>MOL_PROPERTY
Grad RMS
SciTegic.value.DoubleValue
0.000000

@<SCITEGIC>MOL_PROPERTY
U
SciTegic.value.DoubleValue
3.922

@<SCITEGIC>MOL_PROPERTY
W
SciTegic.value.DoubleValue
-1.350

@<SCITEGIC>MOL_PROPERTY
W(PB)
SciTegic.value.DoubleValue
-3.345

@<SCITEGIC>MOL_PROPERTY
W(SA)
SciTegic.value.DoubleValue
1.995

@<SCITEGIC>MOL_PROPERTY
Valence
SciTegic.value.DoubleValue
12.571

@<SCITEGIC>MOL_PROPERTY
Coulomb
SciTegic.value.DoubleValue
-10.581

@<SCITEGIC>MOL_PROPERTY
VdW
SciTegic.value.DoubleValue
1.932

@<SCITEGIC>MOL_PROPERTY
VdW6
SciTegic.value.DoubleValue
-10.483

@<SCITEGIC>MOL_PROPERTY
VdW12
SciTegic.value.DoubleValue
12.415

@<SCITEGIC>MOL_PROPERTY
Bond
SciTegic.value.DoubleValue
0.268

@<SCITEGIC>MOL_PROPERTY
Angle
SciTegic.value.DoubleValue
3.728

@<SCITEGIC>MOL_PROPERTY
Pdih
SciTegic.value.DoubleValue
8.575

@<SCITEGIC>MOL_PROPERTY
Idih
SciTegic.value.DoubleValue
0.000

@<SCITEGIC>MOL_PROPERTY
Tether
SciTegic.value.DoubleValue
0.000

@<TRIPOS>MOLECULE
guest-5_confgen4.mol2 : confsearch ligand conformer 600
          22          22           1
SMALL
USER_CHARGES
 
@<TRIPOS>ATOM
       1    C1      20.827589   20.966557   23.247171 C.3        1 MOL1        -0.1685
       2    H1      21.690116   21.644655   23.306512 H          1 MOL1         0.0832
       3    H2      20.055476   21.435344   23.871778 H          1 MOL1         0.0832
       4    C2      21.253002   19.598541   23.856602 C.3        1 MOL1        -0.1685
       5    H3      22.299609   19.684571   24.179873 H          1 MOL1         0.0832
       6    H4      20.687582   19.402251   24.777375 H          1 MOL1         0.0832
       7    C3      21.149506   18.373214   22.912879 C.3        1 MOL1        -0.1685
       8    H5      21.654843   17.523483   23.391750 H          1 MOL1         0.0832
       9    H6      21.728411   18.559159   21.999718 H          1 MOL1         0.0832
      10    C4      19.710606   17.921043   22.538796 C.3        1 MOL1        -0.1761
      11    H7      19.763734   17.345198   21.605886 H          1 MOL1         0.0832
      12    H8      19.361945   17.209650   23.299291 H          1 MOL1         0.0832
      13    C5      18.619130   19.008364   22.382039 C.3        1 MOL1         0.1218
      14    H9      17.754522   18.526341   21.903624 H          1 MOL1         0.0789
      15    C6      18.991616   20.232310   21.509483 C.3        1 MOL1        -0.1761
      16    H10     18.959538   19.929714   20.454899 H          1 MOL1         0.0832
      17    H11     18.190741   20.975147   21.622572 H          1 MOL1         0.0832
      18    C7      20.352825   20.934471   21.771933 C.3        1 MOL1        -0.1685
      19    H12     21.129797   20.483025   21.142586 H          1 MOL1         0.0832
      20    H13     20.272212   21.968990   21.411382 H          1 MOL1         0.0832
      21    O1      18.197461   19.447917   23.663534 O.3        1 MOL1        -0.5509
      22    H14     18.995607   19.865957   24.044504 H          1 MOL1         0.3779
@<TRIPOS>BOND
    1     1     2    1
    2     1     3    1
    3     1     4    1
    4     4     5    1
    5     4     6    1
    6     4     7    1
    7     7     8    1
    8     7     9    1
    9     7    10    1
   10    10    11    1
   11    10    12    1
   12    10    13    1
   13    13    14    1
   14    13    15    1
   15    15    16    1
   16    15    17    1
   17     1    18    1
   18    15    18    1
   19    18    19    1
   20    18    20    1
   21    13    21    1
   22    21    22    1
@<TRIPOS>SUBSTRUCTURE
       1 MOL1            1 RESIDUE      1      MOL     
@<SCITEGIC>MOL_PROPERTY
VConf Rank
SciTegic.value.IntegerValue
600

@<SCITEGIC>MOL_PROPERTY
Conf_Id
SciTegic.value.IntegerValue
98

@<SCITEGIC>MOL_PROPERTY
Delta U+W
SciTegic.value.DoubleValue
0.930

@<SCITEGIC>MOL_PROPERTY
U+W
SciTegic.value.DoubleValue
7.353

@<SCITEGIC>MOL_PROPERTY
Grad RMS
SciTegic.value.DoubleValue
0.000000

@<SCITEGIC>MOL_PROPERTY
U
SciTegic.value.DoubleValue
8.455

@<SCITEGIC>MOL_PROPERTY
W
SciTegic.value.DoubleValue
-1.102

@<SCITEGIC>MOL_PROPERTY
W(PB)
SciTegic.value.DoubleValue
-3.101

@<SCITEGIC>MOL_PROPERTY
W(SA)
SciTegic.value.DoubleValue
2.000

@<SCITEGIC>MOL_PROPERTY
Valence
SciTegic.value.DoubleValue
15.601

@<SCITEGIC>MOL_PROPERTY
Coulomb
SciTegic.value.DoubleValue
-10.573

@<SCITEGIC>MOL_PROPERTY
VdW
SciTegic.value.DoubleValue
3.427

@<SCITEGIC>MOL_PROPERTY
VdW6
SciTegic.value.DoubleValue
-11.360

@<SCITEGIC>MOL_PROPERTY
VdW12
SciTegic.value.DoubleValue
14.787

@<SCITEGIC>MOL_PROPERTY
Bond
SciTegic.value.DoubleValue
0.471

@<SCITEGIC>MOL_PROPERTY
Angle
SciTegic.value.DoubleValue
5.445

@<SCITEGIC>MOL_PROPERTY
Pdih
SciTegic.value.DoubleValue
9.685

@<SCITEGIC>MOL_PROPERTY
Idih
SciTegic.value.DoubleValue
0.000

@<SCITEGIC>MOL_PROPERTY
Tether
SciTegic.value.DoubleValue
0.000

@<TRIPOS>MOLECULE
guest-5_confgen4.mol2 : confsearch ligand conformer 601
          22          22           1
SMALL
USER_CHARGES
 
@<TRIPOS>ATOM
       1    C1      18.343346   19.740036   22.994205 C.3        1 MOL1        -0.1685
       2    H1      18.195415   19.882048   21.915906 H          1 MOL1         0.0832
       3    H2      17.335175   19.782654   23.428358 H          1 MOL1         0.0832
       4    C2      19.177397   20.913773   23.567667 C.3        1 MOL1        -0.1685
       5    H3      18.626477   21.841898   23.362855 H          1 MOL1         0.0832
       6    H4      19.224482   20.831180   24.662009 H          1 MOL1         0.0832
       7    C3      20.617245   21.072099   23.005159 C.3        1 MOL1        -0.1685
       8    H5      21.348923   20.698364   23.733159 H          1 MOL1         0.0832
       9    H6      20.832895   22.145254   22.913139 H          1 MOL1         0.0832
      10    C4      20.863688   20.395937   21.630467 C.3        1 MOL1        -0.1761
      11    H7      20.091110   20.724410   20.924170 H          1 MOL1         0.0832
      12    H8      21.805017   20.784359   21.218867 H          1 MOL1         0.0832
      13    C5      20.921050   18.840135   21.638328 C.3        1 MOL1         0.1218
      14    H9      20.307368   18.474249   20.802512 H          1 MOL1         0.0789
      15    C6      20.429896   18.151098   22.936117 C.3        1 MOL1        -0.1761
      16    H10     20.632874   17.074575   22.865729 H          1 MOL1         0.0832
      17    H11     21.027328   18.498810   23.787446 H          1 MOL1         0.0832
      18    C7      18.924443   18.330329   23.254383 C.3        1 MOL1        -0.1685
      19    H12     18.347277   17.608094   22.661026 H          1 MOL1         0.0832
      20    H13     18.756104   18.059525   24.305572 H          1 MOL1         0.0832
      21    O1      22.269497   18.437844   21.426134 O.3        1 MOL1        -0.5509
      22    H14     22.268246   17.459134   21.378129 H          1 MOL1         0.3779
@<TRIPOS>BOND
    1     1     2    1
    2     1     3    1
    3     1     4    1
    4     4     5    1
    5     4     6    1
    6     4     7    1
    7     7     8    1
    8     7     9    1
    9     7    10    1
   10    10    11    1
   11    10    12    1
   12    10    13    1
   13    13    14    1
   14    13    15    1
   15    15    16    1
   16    15    17    1
   17     1    18    1
   18    15    18    1
   19    18    19    1
   20    18    20    1
   21    13    21    1
   22    21    22    1
@<TRIPOS>SUBSTRUCTURE
       1 MOL1            1 RESIDUE      1      MOL     
@<SCITEGIC>MOL_PROPERTY
VConf Rank
SciTegic.value.IntegerValue
601

@<SCITEGIC>MOL_PROPERTY
Conf_Id
SciTegic.value.IntegerValue
141

@<SCITEGIC>MOL_PROPERTY
Delta U+W
SciTegic.value.DoubleValue
0.000

@<SCITEGIC>MOL_PROPERTY
U+W
SciTegic.value.DoubleValue
6.423

@<SCITEGIC>MOL_PROPERTY
Grad RMS
SciTegic.value.DoubleValue
0.000000

@<SCITEGIC>MOL_PROPERTY
U
SciTegic.value.DoubleValue
8.781

@<SCITEGIC>MOL_PROPERTY
W
SciTegic.value.DoubleValue
-2.358

@<SCITEGIC>MOL_PROPERTY
W(PB)
SciTegic.value.DoubleValue
-4.373

@<SCITEGIC>MOL_PROPERTY
W(SA)
SciTegic.value.DoubleValue
2.015

@<SCITEGIC>MOL_PROPERTY
Valence
SciTegic.value.DoubleValue
13.328

@<SCITEGIC>MOL_PROPERTY
Coulomb
SciTegic.value.DoubleValue
-8.387

@<SCITEGIC>MOL_PROPERTY
VdW
SciTegic.value.DoubleValue
3.840

@<SCITEGIC>MOL_PROPERTY
VdW6
SciTegic.value.DoubleValue
-9.744

@<SCITEGIC>MOL_PROPERTY
VdW12
SciTegic.value.DoubleValue
13.584

@<SCITEGIC>MOL_PROPERTY
Bond
SciTegic.value.DoubleValue
0.436

@<SCITEGIC>MOL_PROPERTY
Angle
SciTegic.value.DoubleValue
3.478

@<SCITEGIC>MOL_PROPERTY
Pdih
SciTegic.value.DoubleValue
9.415

@<SCITEGIC>MOL_PROPERTY
Idih
SciTegic.value.DoubleValue
0.000

@<SCITEGIC>MOL_PROPERTY
Tether
SciTegic.value.DoubleValue
0.000

@<TRIPOS>MOLECULE
guest-5_confgen4.mol2 : confsearch ligand conformer 602
          22          22           1
SMALL
USER_CHARGES
 
@<TRIPOS>ATOM
       1    C1      19.742107   18.298972   23.789910 C.3        1 MOL1        -0.1685
       2    H1      19.205784   17.750907   23.003404 H          1 MOL1         0.0832
       3    H2      19.780128   17.625736   24.657212 H          1 MOL1         0.0832
       4    C2      18.960489   19.566144   24.212996 C.3        1 MOL1        -0.1685
       5    H3      18.043589   19.254750   24.731824 H          1 MOL1         0.0832
       6    H4      19.547460   20.125484   24.954268 H          1 MOL1         0.0832
       7    C3      18.562544   20.512096   23.056646 C.3        1 MOL1        -0.1685
       8    H5      18.078407   21.397867   23.490059 H          1 MOL1         0.0832
       9    H6      17.797735   20.026751   22.434980 H          1 MOL1         0.0832
      10    C4      19.735539   20.978907   22.160348 C.3        1 MOL1        -0.1761
      11    H7      19.369953   21.808012   21.540334 H          1 MOL1         0.0832
      12    H8      20.549697   21.390161   22.771097 H          1 MOL1         0.0832
      13    C5      20.264170   19.857723   21.237785 C.3        1 MOL1         0.1218
      14    H9      19.419414   19.208443   20.966370 H          1 MOL1         0.0789
      15    C6      21.369812   18.978227   21.864954 C.3        1 MOL1        -0.1761
      16    H10     21.432435   18.054438   21.275427 H          1 MOL1         0.0832
      17    H11     22.341266   19.476693   21.746969 H          1 MOL1         0.0832
      18    C7      21.195516   18.604467   23.358262 C.3        1 MOL1        -0.1685
      19    H12     21.820911   17.724864   23.563209 H          1 MOL1         0.0832
      20    H13     21.602312   19.407451   23.987899 H          1 MOL1         0.0832
      21    O1      20.788270   20.447113   20.054081 O.3        1 MOL1        -0.5509
      22    H14     20.051520   20.937306   19.632739 H          1 MOL1         0.3779
@<TRIPOS>BOND
    1     1     2    1
    2     1     3    1
    3     1     4    1
    4     4     5    1
    5     4     6    1
    6     4     7    1
    7     7     8    1
    8     7     9    1
    9     7    10    1
   10    10    11    1
   11    10    12    1
   12    10    13    1
   13    13    14    1
   14    13    15    1
   15    15    16    1
   16    15    17    1
   17     1    18    1
   18    15    18    1
   19    18    19    1
   20    18    20    1
   21    13    21    1
   22    21    22    1
@<TRIPOS>SUBSTRUCTURE
       1 MOL1            1 RESIDUE      1      MOL     
@<SCITEGIC>MOL_PROPERTY
VConf Rank
SciTegic.value.IntegerValue
602

@<SCITEGIC>MOL_PROPERTY
Conf_Id
SciTegic.value.IntegerValue
144

@<SCITEGIC>MOL_PROPERTY
Delta U+W
SciTegic.value.DoubleValue
-3.291

@<SCITEGIC>MOL_PROPERTY
U+W
SciTegic.value.DoubleValue
3.132

@<SCITEGIC>MOL_PROPERTY
Grad RMS
SciTegic.value.DoubleValue
0.000000

@<SCITEGIC>MOL_PROPERTY
U
SciTegic.value.DoubleValue
5.411

@<SCITEGIC>MOL_PROPERTY
W
SciTegic.value.DoubleValue
-2.279

@<SCITEGIC>MOL_PROPERTY
W(PB)
SciTegic.value.DoubleValue
-4.300

@<SCITEGIC>MOL_PROPERTY
W(SA)
SciTegic.value.DoubleValue
2.021

@<SCITEGIC>MOL_PROPERTY
Valence
SciTegic.value.DoubleValue
11.909

@<SCITEGIC>MOL_PROPERTY
Coulomb
SciTegic.value.DoubleValue
-8.733

@<SCITEGIC>MOL_PROPERTY
VdW
SciTegic.value.DoubleValue
2.236

@<SCITEGIC>MOL_PROPERTY
VdW6
SciTegic.value.DoubleValue
-8.936

@<SCITEGIC>MOL_PROPERTY
VdW12
SciTegic.value.DoubleValue
11.172

@<SCITEGIC>MOL_PROPERTY
Bond
SciTegic.value.DoubleValue
0.223

@<SCITEGIC>MOL_PROPERTY
Angle
SciTegic.value.DoubleValue
2.457

@<SCITEGIC>MOL_PROPERTY
Pdih
SciTegic.value.DoubleValue
9.228

@<SCITEGIC>MOL_PROPERTY
Idih
SciTegic.value.DoubleValue
0.000

@<SCITEGIC>MOL_PROPERTY
Tether
SciTegic.value.DoubleValue
0.000

@<TRIPOS>MOLECULE
guest-5_confgen4.mol2 : confsearch ligand conformer 603
          22          22           1
SMALL
USER_CHARGES
 
@<TRIPOS>ATOM
       1    C1      20.423372   18.559326   23.988223 C.3        1 MOL1        -0.1685
       2    H1      20.895279   18.165902   24.898944 H          1 MOL1         0.0832
       3    H2      19.747164   17.770625   23.631326 H          1 MOL1         0.0832
       4    C2      21.538811   18.838598   22.953875 C.3        1 MOL1        -0.1685
       5    H3      21.993006   19.817109   23.161234 H          1 MOL1         0.0832
       6    H4      22.345253   18.105851   23.094343 H          1 MOL1         0.0832
       7    C3      21.091448   18.776950   21.473338 C.3        1 MOL1        -0.1685
       8    H5      21.105513   17.730557   21.139003 H          1 MOL1         0.0832
       9    H6      21.846639   19.294210   20.865764 H          1 MOL1         0.0832
      10    C4      19.696020   19.366838   21.152477 C.3        1 MOL1        -0.1761
      11    H7      19.653522   19.560251   20.072081 H          1 MOL1         0.0832
      12    H8      18.929313   18.606302   21.349045 H          1 MOL1         0.0832
      13    C5      19.342518   20.659353   21.921916 C.3        1 MOL1         0.1218
      14    H9      20.251552   21.259144   22.071501 H          1 MOL1         0.0789
      15    C6      18.679543   20.372900   23.288440 C.3        1 MOL1        -0.1761
      16    H10     18.229410   21.302153   23.662606 H          1 MOL1         0.0832
      17    H11     17.849665   19.667319   23.152265 H          1 MOL1         0.0832
      18    C7      19.632432   19.830509   24.380013 C.3        1 MOL1        -0.1685
      19    H12     20.335686   20.621308   24.674964 H          1 MOL1         0.0832
      20    H13     19.037033   19.610113   25.276514 H          1 MOL1         0.0832
      21    O1      18.422286   21.407904   21.138938 O.3        1 MOL1        -0.5509
      22    H14     17.630609   20.842403   21.026616 H          1 MOL1         0.3779
@<TRIPOS>BOND
    1     1     2    1
    2     1     3    1
    3     1     4    1
    4     4     5    1
    5     4     6    1
    6     4     7    1
    7     7     8    1
    8     7     9    1
    9     7    10    1
   10    10    11    1
   11    10    12    1
   12    10    13    1
   13    13    14    1
   14    13    15    1
   15    15    16    1
   16    15    17    1
   17     1    18    1
   18    15    18    1
   19    18    19    1
   20    18    20    1
   21    13    21    1
   22    21    22    1
@<TRIPOS>SUBSTRUCTURE
       1 MOL1            1 RESIDUE      1      MOL     
@<SCITEGIC>MOL_PROPERTY
VConf Rank
SciTegic.value.IntegerValue
603

@<SCITEGIC>MOL_PROPERTY
Conf_Id
SciTegic.value.IntegerValue
76

@<SCITEGIC>MOL_PROPERTY
Delta U+W
SciTegic.value.DoubleValue
-3.175

@<SCITEGIC>MOL_PROPERTY
U+W
SciTegic.value.DoubleValue
3.248

@<SCITEGIC>MOL_PROPERTY
Grad RMS
SciTegic.value.DoubleValue
0.000000

@<SCITEGIC>MOL_PROPERTY
U
SciTegic.value.DoubleValue
5.336

@<SCITEGIC>MOL_PROPERTY
W
SciTegic.value.DoubleValue
-2.088

@<SCITEGIC>MOL_PROPERTY
W(PB)
SciTegic.value.DoubleValue
-4.098

@<SCITEGIC>MOL_PROPERTY
W(SA)
SciTegic.value.DoubleValue
2.010

@<SCITEGIC>MOL_PROPERTY
Valence
SciTegic.value.DoubleValue
12.390

@<SCITEGIC>MOL_PROPERTY
Coulomb
SciTegic.value.DoubleValue
-9.270

@<SCITEGIC>MOL_PROPERTY
VdW
SciTegic.value.DoubleValue
2.216

@<SCITEGIC>MOL_PROPERTY
VdW6
SciTegic.value.DoubleValue
-8.967

@<SCITEGIC>MOL_PROPERTY
VdW12
SciTegic.value.DoubleValue
11.183

@<SCITEGIC>MOL_PROPERTY
Bond
SciTegic.value.DoubleValue
0.218

@<SCITEGIC>MOL_PROPERTY
Angle
SciTegic.value.DoubleValue
2.426

@<SCITEGIC>MOL_PROPERTY
Pdih
SciTegic.value.DoubleValue
9.745

@<SCITEGIC>MOL_PROPERTY
Idih
SciTegic.value.DoubleValue
0.000

@<SCITEGIC>MOL_PROPERTY
Tether
SciTegic.value.DoubleValue
0.000

@<TRIPOS>MOLECULE
guest-5_confgen4.mol2 : confsearch ligand conformer 604
          22          22           1
SMALL
USER_CHARGES
 
@<TRIPOS>ATOM
       1    C1      20.374900   17.738132   23.023819 C.3        1 MOL1        -0.1685
       2    H1      21.100618   17.082952   22.522967 H          1 MOL1         0.0832
       3    H2      19.922635   17.129392   23.818619 H          1 MOL1         0.0832
       4    C2      19.279489   18.119367   21.999412 C.3        1 MOL1        -0.1685
       5    H3      19.733534   18.246266   21.007333 H          1 MOL1         0.0832
       6    H4      18.594436   17.266167   21.901760 H          1 MOL1         0.0832
       7    C3      18.461175   19.382200   22.356003 C.3        1 MOL1        -0.1685
       8    H5      18.280553   19.441659   23.437981 H          1 MOL1         0.0832
       9    H6      17.472366   19.291629   21.886594 H          1 MOL1         0.0832
      10    C4      19.113718   20.687344   21.833636 C.3        1 MOL1        -0.1761
      11    H7      19.348016   20.571968   20.767660 H          1 MOL1         0.0832
      12    H8      18.372142   21.495225   21.886623 H          1 MOL1         0.0832
      13    C5      20.385613   21.159056   22.574492 C.3        1 MOL1         0.1218
      14    H9      20.816465   21.975135   21.976596 H          1 MOL1         0.0789
      15    C6      21.488847   20.083932   22.740232 C.3        1 MOL1        -0.1761
      16    H10     21.778498   19.693316   21.756159 H          1 MOL1         0.0832
      17    H11     22.382502   20.584676   23.134470 H          1 MOL1         0.0832
      18    C7      21.129903   18.912452   23.691027 C.3        1 MOL1        -0.1685
      19    H12     22.056252   18.513727   24.126135 H          1 MOL1         0.0832
      20    H13     20.545295   19.284121   24.542811 H          1 MOL1         0.0832
      21    O1      20.020431   21.685947   23.846125 O.3        1 MOL1        -0.5509
      22    H14     20.854831   21.923149   24.299772 H          1 MOL1         0.3779
@<TRIPOS>BOND
    1     1     2    1
    2     1     3    1
    3     1     4    1
    4     4     5    1
    5     4     6    1
    6     4     7    1
    7     7     8    1
    8     7     9    1
    9     7    10    1
   10    10    11    1
   11    10    12    1
   12    10    13    1
   13    13    14    1
   14    13    15    1
   15    15    16    1
   16    15    17    1
   17     1    18    1
   18    15    18    1
   19    18    19    1
   20    18    20    1
   21    13    21    1
   22    21    22    1
@<TRIPOS>SUBSTRUCTURE
       1 MOL1            1 RESIDUE      1      MOL     
@<SCITEGIC>MOL_PROPERTY
VConf Rank
SciTegic.value.IntegerValue
604

@<SCITEGIC>MOL_PROPERTY
Conf_Id
SciTegic.value.IntegerValue
95

@<SCITEGIC>MOL_PROPERTY
Delta U+W
SciTegic.value.DoubleValue
-2.289

@<SCITEGIC>MOL_PROPERTY
U+W
SciTegic.value.DoubleValue
4.134

@<SCITEGIC>MOL_PROPERTY
Grad RMS
SciTegic.value.DoubleValue
0.000000

@<SCITEGIC>MOL_PROPERTY
U
SciTegic.value.DoubleValue
6.373

@<SCITEGIC>MOL_PROPERTY
W
SciTegic.value.DoubleValue
-2.240

@<SCITEGIC>MOL_PROPERTY
W(PB)
SciTegic.value.DoubleValue
-4.254

@<SCITEGIC>MOL_PROPERTY
W(SA)
SciTegic.value.DoubleValue
2.015

@<SCITEGIC>MOL_PROPERTY
Valence
SciTegic.value.DoubleValue
12.093

@<SCITEGIC>MOL_PROPERTY
Coulomb
SciTegic.value.DoubleValue
-8.058

@<SCITEGIC>MOL_PROPERTY
VdW
SciTegic.value.DoubleValue
2.339

@<SCITEGIC>MOL_PROPERTY
VdW6
SciTegic.value.DoubleValue
-9.683

@<SCITEGIC>MOL_PROPERTY
VdW12
SciTegic.value.DoubleValue
12.022

@<SCITEGIC>MOL_PROPERTY
Bond
SciTegic.value.DoubleValue
0.268

@<SCITEGIC>MOL_PROPERTY
Angle
SciTegic.value.DoubleValue
3.005

@<SCITEGIC>MOL_PROPERTY
Pdih
SciTegic.value.DoubleValue
8.820

@<SCITEGIC>MOL_PROPERTY
Idih
SciTegic.value.DoubleValue
0.000

@<SCITEGIC>MOL_PROPERTY
Tether
SciTegic.value.DoubleValue
0.000

@<TRIPOS>MOLECULE
guest-5_confgen4.mol2 : confsearch ligand conformer 605
          22          22           1
SMALL
USER_CHARGES
 
@<TRIPOS>ATOM
       1    C1      20.693236   21.378658   23.119506 C.3        1 MOL1        -0.1685
       2    H1      20.277427   22.345140   22.803642 H          1 MOL1         0.0832
       3    H2      21.549368   21.619145   23.764482 H          1 MOL1         0.0832
       4    C2      21.206261   20.638128   21.861432 C.3        1 MOL1        -0.1685
       5    H3      20.537660   20.847527   21.015498 H          1 MOL1         0.0832
       6    H4      22.175947   21.073168   21.583492 H          1 MOL1         0.0832
       7    C3      21.369669   19.108761   22.022209 C.3        1 MOL1        -0.1685
       8    H5      21.740856   18.856222   23.024837 H          1 MOL1         0.0832
       9    H6      22.142443   18.773191   21.317483 H          1 MOL1         0.0832
      10    C4      20.068013   18.331735   21.700913 C.3        1 MOL1        -0.1761
      11    H7      19.678023   18.669802   20.732143 H          1 MOL1         0.0832
      12    H8      20.317492   17.272028   21.560330 H          1 MOL1         0.0832
      13    C5      18.937717   18.430875   22.750836 C.3        1 MOL1         0.1218
      14    H9      18.042772   17.980676   22.297518 H          1 MOL1         0.0789
      15    C6      18.556800   19.872003   23.173194 C.3        1 MOL1        -0.1761
      16    H10     18.262166   20.455279   22.291453 H          1 MOL1         0.0832
      17    H11     17.657841   19.799587   23.798859 H          1 MOL1         0.0832
      18    C7      19.643330   20.632642   23.977136 C.3        1 MOL1        -0.1685
      19    H12     19.150876   21.370495   24.624655 H          1 MOL1         0.0832
      20    H13     20.153591   19.941749   24.661183 H          1 MOL1         0.0832
      21    O1      19.289082   17.661686   23.897039 O.3        1 MOL1        -0.5509
      22    H14     19.535766   16.771319   23.573649 H          1 MOL1         0.3779
@<TRIPOS>BOND
    1     1     2    1
    2     1     3    1
    3     1     4    1
    4     4     5    1
    5     4     6    1
    6     4     7    1
    7     7     8    1
    8     7     9    1
    9     7    10    1
   10    10    11    1
   11    10    12    1
   12    10    13    1
   13    13    14    1
   14    13    15    1
   15    15    16    1
   16    15    17    1
   17     1    18    1
   18    15    18    1
   19    18    19    1
   20    18    20    1
   21    13    21    1
   22    21    22    1
@<TRIPOS>SUBSTRUCTURE
       1 MOL1            1 RESIDUE      1      MOL     
@<SCITEGIC>MOL_PROPERTY
VConf Rank
SciTegic.value.IntegerValue
605

@<SCITEGIC>MOL_PROPERTY
Conf_Id
SciTegic.value.IntegerValue
41

@<SCITEGIC>MOL_PROPERTY
Delta U+W
SciTegic.value.DoubleValue
-2.114

@<SCITEGIC>MOL_PROPERTY
U+W
SciTegic.value.DoubleValue
4.310

@<SCITEGIC>MOL_PROPERTY
Grad RMS
SciTegic.value.DoubleValue
0.000000

@<SCITEGIC>MOL_PROPERTY
U
SciTegic.value.DoubleValue
6.598

@<SCITEGIC>MOL_PROPERTY
W
SciTegic.value.DoubleValue
-2.289

@<SCITEGIC>MOL_PROPERTY
W(PB)
SciTegic.value.DoubleValue
-4.294

@<SCITEGIC>MOL_PROPERTY
W(SA)
SciTegic.value.DoubleValue
2.005

@<SCITEGIC>MOL_PROPERTY
Valence
SciTegic.value.DoubleValue
12.082

@<SCITEGIC>MOL_PROPERTY
Coulomb
SciTegic.value.DoubleValue
-7.801

@<SCITEGIC>MOL_PROPERTY
VdW
SciTegic.value.DoubleValue
2.317

@<SCITEGIC>MOL_PROPERTY
VdW6
SciTegic.value.DoubleValue
-9.658

@<SCITEGIC>MOL_PROPERTY
VdW12
SciTegic.value.DoubleValue
11.975

@<SCITEGIC>MOL_PROPERTY
Bond
SciTegic.value.DoubleValue
0.267

@<SCITEGIC>MOL_PROPERTY
Angle
SciTegic.value.DoubleValue
3.051

@<SCITEGIC>MOL_PROPERTY
Pdih
SciTegic.value.DoubleValue
8.764

@<SCITEGIC>MOL_PROPERTY
Idih
SciTegic.value.DoubleValue
0.000

@<SCITEGIC>MOL_PROPERTY
Tether
SciTegic.value.DoubleValue
0.000

@<TRIPOS>MOLECULE
guest-5_confgen4.mol2 : confsearch ligand conformer 606
          22          22           1
SMALL
USER_CHARGES
 
@<TRIPOS>ATOM
       1    C1      19.994813   21.199204   22.622414 C.3        1 MOL1        -0.1685
       2    H1      19.678575   22.247748   22.538168 H          1 MOL1         0.0832
       3    H2      20.997619   21.215055   23.071085 H          1 MOL1         0.0832
       4    C2      20.042893   20.602844   21.197834 C.3        1 MOL1        -0.1685
       5    H3      19.024272   20.538340   20.791838 H          1 MOL1         0.0832
       6    H4      20.584117   21.299923   20.543833 H          1 MOL1         0.0832
       7    C3      20.724759   19.220505   21.100787 C.3        1 MOL1        -0.1685
       8    H5      21.798554   19.327644   21.304196 H          1 MOL1         0.0832
       9    H6      20.655437   18.881513   20.058480 H          1 MOL1         0.0832
      10    C4      20.118560   18.120188   22.013482 C.3        1 MOL1        -0.1761
      11    H7      19.032376   18.065461   21.866963 H          1 MOL1         0.0832
      12    H8      20.512320   17.153446   21.674443 H          1 MOL1         0.0832
      13    C5      20.440183   18.239176   23.525577 C.3        1 MOL1         0.1218
      14    H9      20.229322   17.256151   23.971085 H          1 MOL1         0.0789
      15    C6      19.589209   19.263871   24.319922 C.3        1 MOL1        -0.1761
      16    H10     18.752927   18.723546   24.782246 H          1 MOL1         0.0832
      17    H11     20.183367   19.647825   25.159581 H          1 MOL1         0.0832
      18    C7      18.995262   20.465110   23.543295 C.3        1 MOL1        -0.1685
      19    H12     18.123700   20.138197   22.960267 H          1 MOL1         0.0832
      20    H13     18.605101   21.180959   24.279511 H          1 MOL1         0.0832
      21    O1      21.825201   18.512415   23.720477 O.3        1 MOL1        -0.5509
      22    H14     21.975320   18.536510   24.687324 H          1 MOL1         0.3779
@<TRIPOS>BOND
    1     1     2    1
    2     1     3    1
    3     1     4    1
    4     4     5    1
    5     4     6    1
    6     4     7    1
    7     7     8    1
    8     7     9    1
    9     7    10    1
   10    10    11    1
   11    10    12    1
   12    10    13    1
   13    13    14    1
   14    13    15    1
   15    15    16    1
   16    15    17    1
   17     1    18    1
   18    15    18    1
   19    18    19    1
   20    18    20    1
   21    13    21    1
   22    21    22    1
@<TRIPOS>SUBSTRUCTURE
       1 MOL1            1 RESIDUE      1      MOL     
@<SCITEGIC>MOL_PROPERTY
VConf Rank
SciTegic.value.IntegerValue
606

@<SCITEGIC>MOL_PROPERTY
Conf_Id
SciTegic.value.IntegerValue
104

@<SCITEGIC>MOL_PROPERTY
Delta U+W
SciTegic.value.DoubleValue
-1.172

@<SCITEGIC>MOL_PROPERTY
U+W
SciTegic.value.DoubleValue
5.252

@<SCITEGIC>MOL_PROPERTY
Grad RMS
SciTegic.value.DoubleValue
0.000000

@<SCITEGIC>MOL_PROPERTY
U
SciTegic.value.DoubleValue
7.482

@<SCITEGIC>MOL_PROPERTY
W
SciTegic.value.DoubleValue
-2.230

@<SCITEGIC>MOL_PROPERTY
W(PB)
SciTegic.value.DoubleValue
-4.220

@<SCITEGIC>MOL_PROPERTY
W(SA)
SciTegic.value.DoubleValue
1.990

@<SCITEGIC>MOL_PROPERTY
Valence
SciTegic.value.DoubleValue
12.309

@<SCITEGIC>MOL_PROPERTY
Coulomb
SciTegic.value.DoubleValue
-7.084

@<SCITEGIC>MOL_PROPERTY
VdW
SciTegic.value.DoubleValue
2.258

@<SCITEGIC>MOL_PROPERTY
VdW6
SciTegic.value.DoubleValue
-9.770

@<SCITEGIC>MOL_PROPERTY
VdW12
SciTegic.value.DoubleValue
12.028

@<SCITEGIC>MOL_PROPERTY
Bond
SciTegic.value.DoubleValue
0.284

@<SCITEGIC>MOL_PROPERTY
Angle
SciTegic.value.DoubleValue
3.491

@<SCITEGIC>MOL_PROPERTY
Pdih
SciTegic.value.DoubleValue
8.535

@<SCITEGIC>MOL_PROPERTY
Idih
SciTegic.value.DoubleValue
0.000

@<SCITEGIC>MOL_PROPERTY
Tether
SciTegic.value.DoubleValue
0.000

@<TRIPOS>MOLECULE
guest-5_confgen4.mol2 : confsearch ligand conformer 607
          22          22           1
SMALL
USER_CHARGES
 
@<TRIPOS>ATOM
       1    C1      20.870547   20.266240   21.406198 C.3        1 MOL1        -0.1685
       2    H1      21.466611   20.920910   22.056273 H          1 MOL1         0.0832
       3    H2      21.173935   20.504513   20.377547 H          1 MOL1         0.0832
       4    C2      19.362877   20.580443   21.539200 C.3        1 MOL1        -0.1685
       5    H3      19.136779   21.472894   20.939483 H          1 MOL1         0.0832
       6    H4      18.780877   19.772630   21.076543 H          1 MOL1         0.0832
       7    C3      18.855526   20.839513   22.980433 C.3        1 MOL1        -0.1685
       8    H5      17.783215   20.602990   23.019431 H          1 MOL1         0.0832
       9    H6      18.923513   21.916904   23.184236 H          1 MOL1         0.0832
      10    C4      19.582994   20.098390   24.134872 C.3        1 MOL1        -0.1761
      11    H7      20.523235   20.618640   24.359019 H          1 MOL1         0.0832
      12    H8      18.973308   20.202693   25.041737 H          1 MOL1         0.0832
      13    C5      19.883881   18.596120   23.928395 C.3        1 MOL1         0.1218
      14    H9      20.016811   18.149392   24.924209 H          1 MOL1         0.0789
      15    C6      21.195077   18.348208   23.148924 C.3        1 MOL1        -0.1761
      16    H10     22.016215   18.855509   23.671838 H          1 MOL1         0.0832
      17    H11     21.427776   17.276674   23.202859 H          1 MOL1         0.0832
      18    C7      21.206594   18.777536   21.660860 C.3        1 MOL1        -0.1685
      19    H12     22.209869   18.577191   21.260843 H          1 MOL1         0.0832
      20    H13     20.525685   18.137740   21.083363 H          1 MOL1         0.0832
      21    O1      18.798393   17.955200   23.276394 O.3        1 MOL1        -0.5509
      22    H14     18.689990   18.457191   22.444203 H          1 MOL1         0.3779
@<TRIPOS>BOND
    1     1     2    1
    2     1     3    1
    3     1     4    1
    4     4     5    1
    5     4     6    1
    6     4     7    1
    7     7     8    1
    8     7     9    1
    9     7    10    1
   10    10    11    1
   11    10    12    1
   12    10    13    1
   13    13    14    1
   14    13    15    1
   15    15    16    1
   16    15    17    1
   17     1    18    1
   18    15    18    1
   19    18    19    1
   20    18    20    1
   21    13    21    1
   22    21    22    1
@<TRIPOS>SUBSTRUCTURE
       1 MOL1            1 RESIDUE      1      MOL     
@<SCITEGIC>MOL_PROPERTY
VConf Rank
SciTegic.value.IntegerValue
607

@<SCITEGIC>MOL_PROPERTY
Conf_Id
SciTegic.value.IntegerValue
99

@<SCITEGIC>MOL_PROPERTY
Delta U+W
SciTegic.value.DoubleValue
-3.852

@<SCITEGIC>MOL_PROPERTY
U+W
SciTegic.value.DoubleValue
2.572

@<SCITEGIC>MOL_PROPERTY
Grad RMS
SciTegic.value.DoubleValue
0.000000

@<SCITEGIC>MOL_PROPERTY
U
SciTegic.value.DoubleValue
3.922

@<SCITEGIC>MOL_PROPERTY
W
SciTegic.value.DoubleValue
-1.350

@<SCITEGIC>MOL_PROPERTY
W(PB)
SciTegic.value.DoubleValue
-3.345

@<SCITEGIC>MOL_PROPERTY
W(SA)
SciTegic.value.DoubleValue
1.995

@<SCITEGIC>MOL_PROPERTY
Valence
SciTegic.value.DoubleValue
12.571

@<SCITEGIC>MOL_PROPERTY
Coulomb
SciTegic.value.DoubleValue
-10.581

@<SCITEGIC>MOL_PROPERTY
VdW
SciTegic.value.DoubleValue
1.932

@<SCITEGIC>MOL_PROPERTY
VdW6
SciTegic.value.DoubleValue
-10.483

@<SCITEGIC>MOL_PROPERTY
VdW12
SciTegic.value.DoubleValue
12.415

@<SCITEGIC>MOL_PROPERTY
Bond
SciTegic.value.DoubleValue
0.268

@<SCITEGIC>MOL_PROPERTY
Angle
SciTegic.value.DoubleValue
3.728

@<SCITEGIC>MOL_PROPERTY
Pdih
SciTegic.value.DoubleValue
8.575

@<SCITEGIC>MOL_PROPERTY
Idih
SciTegic.value.DoubleValue
0.000

@<SCITEGIC>MOL_PROPERTY
Tether
SciTegic.value.DoubleValue
0.000

@<TRIPOS>MOLECULE
guest-5_confgen4.mol2 : confsearch ligand conformer 608
          22          22           1
SMALL
USER_CHARGES
 
@<TRIPOS>ATOM
       1    C1      20.667888   21.038087   22.095341 C.3        1 MOL1        -0.1685
       2    H1      21.396934   21.624115   21.518841 H          1 MOL1         0.0832
       3    H2      19.949595   21.776109   22.476699 H          1 MOL1         0.0832
       4    C2      21.424479   20.365126   23.277942 C.3        1 MOL1        -0.1685
       5    H3      22.480968   20.660009   23.213402 H          1 MOL1         0.0832
       6    H4      21.073868   20.775904   24.234178 H          1 MOL1         0.0832
       7    C3      21.368532   18.816818   23.326549 C.3        1 MOL1        -0.1685
       8    H5      22.089864   18.467523   24.077815 H          1 MOL1         0.0832
       9    H6      21.735345   18.403081   22.379005 H          1 MOL1         0.0832
      10    C4      19.986207   18.195510   23.670038 C.3        1 MOL1        -0.1761
      11    H7      19.971720   17.163510   23.296529 H          1 MOL1         0.0832
      12    H8      19.906174   18.109916   24.761947 H          1 MOL1         0.0832
      13    C5      18.713064   18.917633   23.164268 C.3        1 MOL1         0.1218
      14    H9      17.873806   18.221511   23.305101 H          1 MOL1         0.0789
      15    C6      18.707757   19.332675   21.672337 C.3        1 MOL1        -0.1761
      16    H10     18.541931   18.435122   21.062714 H          1 MOL1         0.0832
      17    H11     17.823537   19.962724   21.507443 H          1 MOL1         0.0832
      18    C7      19.951823   20.076794   21.112527 C.3        1 MOL1        -0.1685
      19    H12     20.670987   19.349421   20.715918 H          1 MOL1         0.0832
      20    H13     19.631051   20.654398   20.234914 H          1 MOL1         0.0832
      21    O1      18.455851   20.053156   23.975236 O.3        1 MOL1        -0.5509
      22    H14     19.224489   20.636762   23.815445 H          1 MOL1         0.3779
@<TRIPOS>BOND
    1     1     2    1
    2     1     3    1
    3     1     4    1
    4     4     5    1
    5     4     6    1
    6     4     7    1
    7     7     8    1
    8     7     9    1
    9     7    10    1
   10    10    11    1
   11    10    12    1
   12    10    13    1
   13    13    14    1
   14    13    15    1
   15    15    16    1
   16    15    17    1
   17     1    18    1
   18    15    18    1
   19    18    19    1
   20    18    20    1
   21    13    21    1
   22    21    22    1
@<TRIPOS>SUBSTRUCTURE
       1 MOL1            1 RESIDUE      1      MOL     
@<SCITEGIC>MOL_PROPERTY
VConf Rank
SciTegic.value.IntegerValue
608

@<SCITEGIC>MOL_PROPERTY
Conf_Id
SciTegic.value.IntegerValue
98

@<SCITEGIC>MOL_PROPERTY
Delta U+W
SciTegic.value.DoubleValue
0.930

@<SCITEGIC>MOL_PROPERTY
U+W
SciTegic.value.DoubleValue
7.353

@<SCITEGIC>MOL_PROPERTY
Grad RMS
SciTegic.value.DoubleValue
0.000000

@<SCITEGIC>MOL_PROPERTY
U
SciTegic.value.DoubleValue
8.455

@<SCITEGIC>MOL_PROPERTY
W
SciTegic.value.DoubleValue
-1.102

@<SCITEGIC>MOL_PROPERTY
W(PB)
SciTegic.value.DoubleValue
-3.101

@<SCITEGIC>MOL_PROPERTY
W(SA)
SciTegic.value.DoubleValue
2.000

@<SCITEGIC>MOL_PROPERTY
Valence
SciTegic.value.DoubleValue
15.601

@<SCITEGIC>MOL_PROPERTY
Coulomb
SciTegic.value.DoubleValue
-10.573

@<SCITEGIC>MOL_PROPERTY
VdW
SciTegic.value.DoubleValue
3.427

@<SCITEGIC>MOL_PROPERTY
VdW6
SciTegic.value.DoubleValue
-11.360

@<SCITEGIC>MOL_PROPERTY
VdW12
SciTegic.value.DoubleValue
14.787

@<SCITEGIC>MOL_PROPERTY
Bond
SciTegic.value.DoubleValue
0.471

@<SCITEGIC>MOL_PROPERTY
Angle
SciTegic.value.DoubleValue
5.445

@<SCITEGIC>MOL_PROPERTY
Pdih
SciTegic.value.DoubleValue
9.685

@<SCITEGIC>MOL_PROPERTY
Idih
SciTegic.value.DoubleValue
0.000

@<SCITEGIC>MOL_PROPERTY
Tether
SciTegic.value.DoubleValue
0.000

@<TRIPOS>MOLECULE
guest-5_confgen4.mol2 : confsearch ligand conformer 609
          22          22           1
SMALL
USER_CHARGES
 
@<TRIPOS>ATOM
       1    C1      20.364795   20.951798   21.748445 C.3        1 MOL1        -0.1685
       2    H1      19.788392   20.506044   20.927565 H          1 MOL1         0.0832
       3    H2      20.657829   21.945843   21.384140 H          1 MOL1         0.0832
       4    C2      21.648420   20.120190   21.999233 C.3        1 MOL1        -0.1685
       5    H3      22.227572   20.116430   21.065722 H          1 MOL1         0.0832
       6    H4      22.279399   20.631827   22.738636 H          1 MOL1         0.0832
       7    C3      21.435838   18.645999   22.442197 C.3        1 MOL1        -0.1685
       8    H5      21.619790   18.546569   23.519829 H          1 MOL1         0.0832
       9    H6      22.210251   18.030018   21.965242 H          1 MOL1         0.0832
      10    C4      20.044998   18.050455   22.097811 C.3        1 MOL1        -0.1761
      11    H7      19.839206   18.209681   21.032014 H          1 MOL1         0.0832
      12    H8      20.098435   16.959613   22.214405 H          1 MOL1         0.0832
      13    C5      18.848276   18.588828   22.935594 C.3        1 MOL1         0.1218
      14    H9      18.026027   18.818977   22.242770 H          1 MOL1         0.0789
      15    C6      19.131379   19.852468   23.786078 C.3        1 MOL1        -0.1761
      16    H10     18.257696   20.058805   24.417870 H          1 MOL1         0.0832
      17    H11     19.949173   19.649411   24.487912 H          1 MOL1         0.0832
      18    C7      19.448971   21.137370   22.981112 C.3        1 MOL1        -0.1685
      19    H12     18.505616   21.586180   22.641311 H          1 MOL1         0.0832
      20    H13     19.903835   21.870638   23.660882 H          1 MOL1         0.0832
      21    O1      18.423165   17.562641   23.825200 O.3        1 MOL1        -0.5509
      22    H14     17.636191   17.906019   24.297368 H          1 MOL1         0.3779
@<TRIPOS>BOND
    1     1     2    1
    2     1     3    1
    3     1     4    1
    4     4     5    1
    5     4     6    1
    6     4     7    1
    7     7     8    1
    8     7     9    1
    9     7    10    1
   10    10    11    1
   11    10    12    1
   12    10    13    1
   13    13    14    1
   14    13    15    1
   15    15    16    1
   16    15    17    1
   17     1    18    1
   18    15    18    1
   19    18    19    1
   20    18    20    1
   21    13    21    1
   22    21    22    1
@<TRIPOS>SUBSTRUCTURE
       1 MOL1            1 RESIDUE      1      MOL     
@<SCITEGIC>MOL_PROPERTY
VConf Rank
SciTegic.value.IntegerValue
609

@<SCITEGIC>MOL_PROPERTY
Conf_Id
SciTegic.value.IntegerValue
141

@<SCITEGIC>MOL_PROPERTY
Delta U+W
SciTegic.value.DoubleValue
0.000

@<SCITEGIC>MOL_PROPERTY
U+W
SciTegic.value.DoubleValue
6.423

@<SCITEGIC>MOL_PROPERTY
Grad RMS
SciTegic.value.DoubleValue
0.000000

@<SCITEGIC>MOL_PROPERTY
U
SciTegic.value.DoubleValue
8.781

@<SCITEGIC>MOL_PROPERTY
W
SciTegic.value.DoubleValue
-2.358

@<SCITEGIC>MOL_PROPERTY
W(PB)
SciTegic.value.DoubleValue
-4.373

@<SCITEGIC>MOL_PROPERTY
W(SA)
SciTegic.value.DoubleValue
2.015

@<SCITEGIC>MOL_PROPERTY
Valence
SciTegic.value.DoubleValue
13.328

@<SCITEGIC>MOL_PROPERTY
Coulomb
SciTegic.value.DoubleValue
-8.387

@<SCITEGIC>MOL_PROPERTY
VdW
SciTegic.value.DoubleValue
3.840

@<SCITEGIC>MOL_PROPERTY
VdW6
SciTegic.value.DoubleValue
-9.744

@<SCITEGIC>MOL_PROPERTY
VdW12
SciTegic.value.DoubleValue
13.584

@<SCITEGIC>MOL_PROPERTY
Bond
SciTegic.value.DoubleValue
0.436

@<SCITEGIC>MOL_PROPERTY
Angle
SciTegic.value.DoubleValue
3.478

@<SCITEGIC>MOL_PROPERTY
Pdih
SciTegic.value.DoubleValue
9.415

@<SCITEGIC>MOL_PROPERTY
Idih
SciTegic.value.DoubleValue
0.000

@<SCITEGIC>MOL_PROPERTY
Tether
SciTegic.value.DoubleValue
0.000

@<TRIPOS>MOLECULE
guest-5_confgen4.mol2 : confsearch ligand conformer 610
          22          22           1
SMALL
USER_CHARGES
 
@<TRIPOS>ATOM
       1    C1      18.525963   20.143611   21.854140 C.3        1 MOL1        -0.1685
       2    H1      18.017809   20.146322   22.827989 H          1 MOL1         0.0832
       3    H2      17.791336   20.516277   21.127265 H          1 MOL1         0.0832
       4    C2      18.912455   18.704526   21.435437 C.3        1 MOL1        -0.1685
       5    H3      17.992722   18.144362   21.218268 H          1 MOL1         0.0832
       6    H4      19.471592   18.738008   20.490385 H          1 MOL1         0.0832
       7    C3      19.725515   17.909091   22.482599 C.3        1 MOL1        -0.1685
       8    H5      19.993179   16.938529   22.043063 H          1 MOL1         0.0832
       9    H6      19.084793   17.680742   23.345323 H          1 MOL1         0.0832
      10    C4      21.019879   18.604106   22.971226 C.3        1 MOL1        -0.1761
      11    H7      21.611489   17.857721   23.517478 H          1 MOL1         0.0832
      12    H8      21.636231   18.918143   22.118884 H          1 MOL1         0.0832
      13    C5      20.737503   19.802043   23.905485 C.3        1 MOL1         0.1218
      14    H9      19.826416   19.582741   24.480525 H          1 MOL1         0.0789
      15    C6      20.538511   21.150985   23.177437 C.3        1 MOL1        -0.1761
      16    H10     20.039465   21.834285   23.876654 H          1 MOL1         0.0832
      17    H11     21.519103   21.598786   22.967619 H          1 MOL1         0.0832
      18    C7      19.730444   21.113799   21.856192 C.3        1 MOL1        -0.1685
      19    H12     19.369725   22.130795   21.650220 H          1 MOL1         0.0832
      20    H13     20.400939   20.865268   21.022298 H          1 MOL1         0.0832
      21    O1      21.826648   19.945337   24.809060 O.3        1 MOL1        -0.5509
      22    H14     21.887340   19.107033   25.313225 H          1 MOL1         0.3779
@<TRIPOS>BOND
    1     1     2    1
    2     1     3    1
    3     1     4    1
    4     4     5    1
    5     4     6    1
    6     4     7    1
    7     7     8    1
    8     7     9    1
    9     7    10    1
   10    10    11    1
   11    10    12    1
   12    10    13    1
   13    13    14    1
   14    13    15    1
   15    15    16    1
   16    15    17    1
   17     1    18    1
   18    15    18    1
   19    18    19    1
   20    18    20    1
   21    13    21    1
   22    21    22    1
@<TRIPOS>SUBSTRUCTURE
       1 MOL1            1 RESIDUE      1      MOL     
@<SCITEGIC>MOL_PROPERTY
VConf Rank
SciTegic.value.IntegerValue
610

@<SCITEGIC>MOL_PROPERTY
Conf_Id
SciTegic.value.IntegerValue
144

@<SCITEGIC>MOL_PROPERTY
Delta U+W
SciTegic.value.DoubleValue
-3.291

@<SCITEGIC>MOL_PROPERTY
U+W
SciTegic.value.DoubleValue
3.132

@<SCITEGIC>MOL_PROPERTY
Grad RMS
SciTegic.value.DoubleValue
0.000000

@<SCITEGIC>MOL_PROPERTY
U
SciTegic.value.DoubleValue
5.411

@<SCITEGIC>MOL_PROPERTY
W
SciTegic.value.DoubleValue
-2.279

@<SCITEGIC>MOL_PROPERTY
W(PB)
SciTegic.value.DoubleValue
-4.300

@<SCITEGIC>MOL_PROPERTY
W(SA)
SciTegic.value.DoubleValue
2.021

@<SCITEGIC>MOL_PROPERTY
Valence
SciTegic.value.DoubleValue
11.909

@<SCITEGIC>MOL_PROPERTY
Coulomb
SciTegic.value.DoubleValue
-8.733

@<SCITEGIC>MOL_PROPERTY
VdW
SciTegic.value.DoubleValue
2.236

@<SCITEGIC>MOL_PROPERTY
VdW6
SciTegic.value.DoubleValue
-8.936

@<SCITEGIC>MOL_PROPERTY
VdW12
SciTegic.value.DoubleValue
11.172

@<SCITEGIC>MOL_PROPERTY
Bond
SciTegic.value.DoubleValue
0.223

@<SCITEGIC>MOL_PROPERTY
Angle
SciTegic.value.DoubleValue
2.457

@<SCITEGIC>MOL_PROPERTY
Pdih
SciTegic.value.DoubleValue
9.228

@<SCITEGIC>MOL_PROPERTY
Idih
SciTegic.value.DoubleValue
0.000

@<SCITEGIC>MOL_PROPERTY
Tether
SciTegic.value.DoubleValue
0.000

@<TRIPOS>MOLECULE
guest-5_confgen4.mol2 : confsearch ligand conformer 611
          22          22           1
SMALL
USER_CHARGES
 
@<TRIPOS>ATOM
       1    C1      20.262965   17.986176   23.319513 C.3        1 MOL1        -0.1685
       2    H1      20.728148   17.117759   23.805669 H          1 MOL1         0.0832
       3    H2      19.251612   17.667971   23.032122 H          1 MOL1         0.0832
       4    C2      21.103890   18.343087   22.071501 C.3        1 MOL1        -0.1685
       5    H3      21.965987   18.953147   22.373807 H          1 MOL1         0.0832
       6    H4      21.530071   17.420377   21.654400 H          1 MOL1         0.0832
       7    C3      20.328715   19.063193   20.941690 C.3        1 MOL1        -0.1685
       8    H5      19.815450   18.312270   20.325582 H          1 MOL1         0.0832
       9    H6      21.059933   19.544305   20.277709 H          1 MOL1         0.0832
      10    C4      19.284391   20.115834   21.388316 C.3        1 MOL1        -0.1761
      11    H7      19.067676   20.760749   20.525999 H          1 MOL1         0.0832
      12    H8      18.340185   19.608745   21.625444 H          1 MOL1         0.0832
      13    C5      19.711574   20.988149   22.590054 C.3        1 MOL1         0.1218
      14    H9      20.795522   21.166529   22.548732 H          1 MOL1         0.0789
      15    C6      19.342755   20.348017   23.947692 C.3        1 MOL1        -0.1761
      16    H10     19.435551   21.110403   24.732731 H          1 MOL1         0.0832
      17    H11     18.286161   20.050379   23.937378 H          1 MOL1         0.0832
      18    C7      20.208018   19.132675   24.357547 C.3        1 MOL1        -0.1685
      19    H12     21.228841   19.471508   24.581235 H          1 MOL1         0.0832
      20    H13     19.812303   18.732340   25.300908 H          1 MOL1         0.0832
      21    O1      19.037157   22.235944   22.498515 O.3        1 MOL1        -0.5509
      22    H14     18.079171   22.036067   22.536882 H          1 MOL1         0.3779
@<TRIPOS>BOND
    1     1     2    1
    2     1     3    1
    3     1     4    1
    4     4     5    1
    5     4     6    1
    6     4     7    1
    7     7     8    1
    8     7     9    1
    9     7    10    1
   10    10    11    1
   11    10    12    1
   12    10    13    1
   13    13    14    1
   14    13    15    1
   15    15    16    1
   16    15    17    1
   17     1    18    1
   18    15    18    1
   19    18    19    1
   20    18    20    1
   21    13    21    1
   22    21    22    1
@<TRIPOS>SUBSTRUCTURE
       1 MOL1            1 RESIDUE      1      MOL     
@<SCITEGIC>MOL_PROPERTY
VConf Rank
SciTegic.value.IntegerValue
611

@<SCITEGIC>MOL_PROPERTY
Conf_Id
SciTegic.value.IntegerValue
76

@<SCITEGIC>MOL_PROPERTY
Delta U+W
SciTegic.value.DoubleValue
-3.175

@<SCITEGIC>MOL_PROPERTY
U+W
SciTegic.value.DoubleValue
3.248

@<SCITEGIC>MOL_PROPERTY
Grad RMS
SciTegic.value.DoubleValue
0.000000

@<SCITEGIC>MOL_PROPERTY
U
SciTegic.value.DoubleValue
5.336

@<SCITEGIC>MOL_PROPERTY
W
SciTegic.value.DoubleValue
-2.088

@<SCITEGIC>MOL_PROPERTY
W(PB)
SciTegic.value.DoubleValue
-4.098

@<SCITEGIC>MOL_PROPERTY
W(SA)
SciTegic.value.DoubleValue
2.010

@<SCITEGIC>MOL_PROPERTY
Valence
SciTegic.value.DoubleValue
12.390

@<SCITEGIC>MOL_PROPERTY
Coulomb
SciTegic.value.DoubleValue
-9.270

@<SCITEGIC>MOL_PROPERTY
VdW
SciTegic.value.DoubleValue
2.216

@<SCITEGIC>MOL_PROPERTY
VdW6
SciTegic.value.DoubleValue
-8.967

@<SCITEGIC>MOL_PROPERTY
VdW12
SciTegic.value.DoubleValue
11.183

@<SCITEGIC>MOL_PROPERTY
Bond
SciTegic.value.DoubleValue
0.218

@<SCITEGIC>MOL_PROPERTY
Angle
SciTegic.value.DoubleValue
2.426

@<SCITEGIC>MOL_PROPERTY
Pdih
SciTegic.value.DoubleValue
9.745

@<SCITEGIC>MOL_PROPERTY
Idih
SciTegic.value.DoubleValue
0.000

@<SCITEGIC>MOL_PROPERTY
Tether
SciTegic.value.DoubleValue
0.000

@<TRIPOS>MOLECULE
guest-5_confgen4.mol2 : confsearch ligand conformer 612
          22          22           1
SMALL
USER_CHARGES
 
@<TRIPOS>ATOM
       1    C1      18.404428   19.114652   21.945376 C.3        1 MOL1        -0.1685
       2    H1      18.189675   18.865200   20.897313 H          1 MOL1         0.0832
       3    H2      17.458799   18.971121   22.485746 H          1 MOL1         0.0832
       4    C2      18.800424   20.608939   22.015855 C.3        1 MOL1        -0.1685
       5    H3      19.382723   20.876354   21.123725 H          1 MOL1         0.0832
       6    H4      17.880821   21.206907   21.956289 H          1 MOL1         0.0832
       7    C3      19.584750   21.018874   23.284055 C.3        1 MOL1        -0.1685
       8    H5      19.213559   20.481410   24.167336 H          1 MOL1         0.0832
       9    H6      19.394545   22.083912   23.473283 H          1 MOL1         0.0832
      10    C4      21.115621   20.833229   23.128972 C.3        1 MOL1        -0.1761
      11    H7      21.445859   21.319027   22.201904 H          1 MOL1         0.0832
      12    H8      21.618165   21.375170   23.940860 H          1 MOL1         0.0832
      13    C5      21.631387   19.376178   23.138303 C.3        1 MOL1         0.1218
      14    H9      22.688875   19.412298   22.839118 H          1 MOL1         0.0789
      15    C6      20.912701   18.416248   22.157227 C.3        1 MOL1        -0.1761
      16    H10     20.982894   18.808526   21.134452 H          1 MOL1         0.0832
      17    H11     21.470710   17.471066   22.150485 H          1 MOL1         0.0832
      18    C7      19.433916   18.104163   22.505100 C.3        1 MOL1        -0.1685
      19    H12     19.179985   17.110967   22.110761 H          1 MOL1         0.0832
      20    H13     19.311544   18.024707   23.593288 H          1 MOL1         0.0832
      21    O1      21.563035   18.862097   24.464603 O.3        1 MOL1        -0.5509
      22    H14     21.847804   17.926765   24.416176 H          1 MOL1         0.3779
@<TRIPOS>BOND
    1     1     2    1
    2     1     3    1
    3     1     4    1
    4     4     5    1
    5     4     6    1
    6     4     7    1
    7     7     8    1
    8     7     9    1
    9     7    10    1
   10    10    11    1
   11    10    12    1
   12    10    13    1
   13    13    14    1
   14    13    15    1
   15    15    16    1
   16    15    17    1
   17     1    18    1
   18    15    18    1
   19    18    19    1
   20    18    20    1
   21    13    21    1
   22    21    22    1
@<TRIPOS>SUBSTRUCTURE
       1 MOL1            1 RESIDUE      1      MOL     
@<SCITEGIC>MOL_PROPERTY
VConf Rank
SciTegic.value.IntegerValue
612

@<SCITEGIC>MOL_PROPERTY
Conf_Id
SciTegic.value.IntegerValue
95

@<SCITEGIC>MOL_PROPERTY
Delta U+W
SciTegic.value.DoubleValue
-2.289

@<SCITEGIC>MOL_PROPERTY
U+W
SciTegic.value.DoubleValue
4.134

@<SCITEGIC>MOL_PROPERTY
Grad RMS
SciTegic.value.DoubleValue
0.000000

@<SCITEGIC>MOL_PROPERTY
U
SciTegic.value.DoubleValue
6.373

@<SCITEGIC>MOL_PROPERTY
W
SciTegic.value.DoubleValue
-2.240

@<SCITEGIC>MOL_PROPERTY
W(PB)
SciTegic.value.DoubleValue
-4.254

@<SCITEGIC>MOL_PROPERTY
W(SA)
SciTegic.value.DoubleValue
2.015

@<SCITEGIC>MOL_PROPERTY
Valence
SciTegic.value.DoubleValue
12.093

@<SCITEGIC>MOL_PROPERTY
Coulomb
SciTegic.value.DoubleValue
-8.058

@<SCITEGIC>MOL_PROPERTY
VdW
SciTegic.value.DoubleValue
2.339

@<SCITEGIC>MOL_PROPERTY
VdW6
SciTegic.value.DoubleValue
-9.683

@<SCITEGIC>MOL_PROPERTY
VdW12
SciTegic.value.DoubleValue
12.022

@<SCITEGIC>MOL_PROPERTY
Bond
SciTegic.value.DoubleValue
0.268

@<SCITEGIC>MOL_PROPERTY
Angle
SciTegic.value.DoubleValue
3.005

@<SCITEGIC>MOL_PROPERTY
Pdih
SciTegic.value.DoubleValue
8.820

@<SCITEGIC>MOL_PROPERTY
Idih
SciTegic.value.DoubleValue
0.000

@<SCITEGIC>MOL_PROPERTY
Tether
SciTegic.value.DoubleValue
0.000

@<TRIPOS>MOLECULE
guest-5_confgen4.mol2 : confsearch ligand conformer 613
          22          22           1
SMALL
USER_CHARGES
 
@<TRIPOS>ATOM
       1    C1      21.016022   19.276941   24.315114 C.3        1 MOL1        -0.1685
       2    H1      22.054561   19.547117   24.550049 H          1 MOL1         0.0832
       3    H2      20.623434   18.789564   25.217958 H          1 MOL1         0.0832
       4    C2      21.033106   18.249383   23.158325 C.3        1 MOL1        -0.1685
       5    H3      21.846384   18.495504   22.462276 H          1 MOL1         0.0832
       6    H4      21.294096   17.268857   23.579339 H          1 MOL1         0.0832
       7    C3      19.705803   18.122264   22.374985 C.3        1 MOL1        -0.1685
       8    H5      18.842031   18.210490   23.047989 H          1 MOL1         0.0832
       9    H6      19.657971   17.111252   21.948379 H          1 MOL1         0.0832
      10    C4      19.603010   19.133681   21.205464 C.3        1 MOL1        -0.1761
      11    H7      20.518800   19.079711   20.602711 H          1 MOL1         0.0832
      12    H8      18.794388   18.814298   20.535308 H          1 MOL1         0.0832
      13    C5      19.355960   20.608168   21.598641 C.3        1 MOL1         0.1218
      14    H9      19.484283   21.206293   20.684924 H          1 MOL1         0.0789
      15    C6      20.333237   21.179496   22.656397 C.3        1 MOL1        -0.1761
      16    H10     21.367242   21.084749   22.300944 H          1 MOL1         0.0832
      17    H11     20.138686   22.257330   22.728868 H          1 MOL1         0.0832
      18    C7      20.199210   20.569217   24.075917 C.3        1 MOL1        -0.1685
      19    H12     20.525259   21.315556   24.812726 H          1 MOL1         0.0832
      20    H13     19.141540   20.380962   24.302883 H          1 MOL1         0.0832
      21    O1      18.011031   20.759528   22.042657 O.3        1 MOL1        -0.5509
      22    H14     17.440281   20.369457   21.349639 H          1 MOL1         0.3779
@<TRIPOS>BOND
    1     1     2    1
    2     1     3    1
    3     1     4    1
    4     4     5    1
    5     4     6    1
    6     4     7    1
    7     7     8    1
    8     7     9    1
    9     7    10    1
   10    10    11    1
   11    10    12    1
   12    10    13    1
   13    13    14    1
   14    13    15    1
   15    15    16    1
   16    15    17    1
   17     1    18    1
   18    15    18    1
   19    18    19    1
   20    18    20    1
   21    13    21    1
   22    21    22    1
@<TRIPOS>SUBSTRUCTURE
       1 MOL1            1 RESIDUE      1      MOL     
@<SCITEGIC>MOL_PROPERTY
VConf Rank
SciTegic.value.IntegerValue
613

@<SCITEGIC>MOL_PROPERTY
Conf_Id
SciTegic.value.IntegerValue
41

@<SCITEGIC>MOL_PROPERTY
Delta U+W
SciTegic.value.DoubleValue
-2.114

@<SCITEGIC>MOL_PROPERTY
U+W
SciTegic.value.DoubleValue
4.310

@<SCITEGIC>MOL_PROPERTY
Grad RMS
SciTegic.value.DoubleValue
0.000000

@<SCITEGIC>MOL_PROPERTY
U
SciTegic.value.DoubleValue
6.598

@<SCITEGIC>MOL_PROPERTY
W
SciTegic.value.DoubleValue
-2.289

@<SCITEGIC>MOL_PROPERTY
W(PB)
SciTegic.value.DoubleValue
-4.294

@<SCITEGIC>MOL_PROPERTY
W(SA)
SciTegic.value.DoubleValue
2.005

@<SCITEGIC>MOL_PROPERTY
Valence
SciTegic.value.DoubleValue
12.082

@<SCITEGIC>MOL_PROPERTY
Coulomb
SciTegic.value.DoubleValue
-7.801

@<SCITEGIC>MOL_PROPERTY
VdW
SciTegic.value.DoubleValue
2.317

@<SCITEGIC>MOL_PROPERTY
VdW6
SciTegic.value.DoubleValue
-9.658

@<SCITEGIC>MOL_PROPERTY
VdW12
SciTegic.value.DoubleValue
11.975

@<SCITEGIC>MOL_PROPERTY
Bond
SciTegic.value.DoubleValue
0.267

@<SCITEGIC>MOL_PROPERTY
Angle
SciTegic.value.DoubleValue
3.051

@<SCITEGIC>MOL_PROPERTY
Pdih
SciTegic.value.DoubleValue
8.764

@<SCITEGIC>MOL_PROPERTY
Idih
SciTegic.value.DoubleValue
0.000

@<SCITEGIC>MOL_PROPERTY
Tether
SciTegic.value.DoubleValue
0.000

@<TRIPOS>MOLECULE
guest-5_confgen4.mol2 : confsearch ligand conformer 614
          22          22           1
SMALL
USER_CHARGES
 
@<TRIPOS>ATOM
       1    C1      19.091375   20.750273   22.150944 C.3        1 MOL1        -0.1685
       2    H1      18.606107   21.704165   21.903650 H          1 MOL1         0.0832
       3    H2      18.713863   20.015711   21.426320 H          1 MOL1         0.0832
       4    C2      18.673952   20.364759   23.587789 C.3        1 MOL1        -0.1685
       5    H3      19.112669   21.075536   24.301165 H          1 MOL1         0.0832
       6    H4      17.585362   20.479318   23.679482 H          1 MOL1         0.0832
       7    C3      19.045060   18.923887   24.001779 C.3        1 MOL1        -0.1685
       8    H5      18.441161   18.210915   23.424834 H          1 MOL1         0.0832
       9    H6      18.743919   18.784504   25.048685 H          1 MOL1         0.0832
      10    C4      20.551298   18.568259   23.875439 C.3        1 MOL1        -0.1761
      11    H7      21.160947   19.323883   24.386925 H          1 MOL1         0.0832
      12    H8      20.718539   17.632134   24.423423 H          1 MOL1         0.0832
      13    C5      21.079620   18.353856   22.433587 C.3        1 MOL1         0.1218
      14    H9      22.032185   17.811921   22.524157 H          1 MOL1         0.0789
      15    C6      21.391530   19.642159   21.628523 C.3        1 MOL1        -0.1761
      16    H10     22.462695   19.857250   21.735319 H          1 MOL1         0.0832
      17    H11     21.243449   19.440590   20.559451 H          1 MOL1         0.0832
      18    C7      20.618089   20.931252   22.001249 C.3        1 MOL1        -0.1685
      19    H12     21.033417   21.362365   22.922150 H          1 MOL1         0.0832
      20    H13     20.808173   21.675609   21.216088 H          1 MOL1         0.0832
      21    O1      20.183973   17.529944   21.692030 O.3        1 MOL1        -0.5509
      22    H14     20.586503   17.397338   20.809820 H          1 MOL1         0.3779
@<TRIPOS>BOND
    1     1     2    1
    2     1     3    1
    3     1     4    1
    4     4     5    1
    5     4     6    1
    6     4     7    1
    7     7     8    1
    8     7     9    1
    9     7    10    1
   10    10    11    1
   11    10    12    1
   12    10    13    1
   13    13    14    1
   14    13    15    1
   15    15    16    1
   16    15    17    1
   17     1    18    1
   18    15    18    1
   19    18    19    1
   20    18    20    1
   21    13    21    1
   22    21    22    1
@<TRIPOS>SUBSTRUCTURE
       1 MOL1            1 RESIDUE      1      MOL     
@<SCITEGIC>MOL_PROPERTY
VConf Rank
SciTegic.value.IntegerValue
614

@<SCITEGIC>MOL_PROPERTY
Conf_Id
SciTegic.value.IntegerValue
104

@<SCITEGIC>MOL_PROPERTY
Delta U+W
SciTegic.value.DoubleValue
-1.172

@<SCITEGIC>MOL_PROPERTY
U+W
SciTegic.value.DoubleValue
5.252

@<SCITEGIC>MOL_PROPERTY
Grad RMS
SciTegic.value.DoubleValue
0.000000

@<SCITEGIC>MOL_PROPERTY
U
SciTegic.value.DoubleValue
7.482

@<SCITEGIC>MOL_PROPERTY
W
SciTegic.value.DoubleValue
-2.230

@<SCITEGIC>MOL_PROPERTY
W(PB)
SciTegic.value.DoubleValue
-4.220

@<SCITEGIC>MOL_PROPERTY
W(SA)
SciTegic.value.DoubleValue
1.990

@<SCITEGIC>MOL_PROPERTY
Valence
SciTegic.value.DoubleValue
12.309

@<SCITEGIC>MOL_PROPERTY
Coulomb
SciTegic.value.DoubleValue
-7.084

@<SCITEGIC>MOL_PROPERTY
VdW
SciTegic.value.DoubleValue
2.258

@<SCITEGIC>MOL_PROPERTY
VdW6
SciTegic.value.DoubleValue
-9.770

@<SCITEGIC>MOL_PROPERTY
VdW12
SciTegic.value.DoubleValue
12.028

@<SCITEGIC>MOL_PROPERTY
Bond
SciTegic.value.DoubleValue
0.284

@<SCITEGIC>MOL_PROPERTY
Angle
SciTegic.value.DoubleValue
3.491

@<SCITEGIC>MOL_PROPERTY
Pdih
SciTegic.value.DoubleValue
8.535

@<SCITEGIC>MOL_PROPERTY
Idih
SciTegic.value.DoubleValue
0.000

@<SCITEGIC>MOL_PROPERTY
Tether
SciTegic.value.DoubleValue
0.000

@<TRIPOS>MOLECULE
guest-5_confgen4.mol2 : confsearch ligand conformer 615
          22          22           1
SMALL
USER_CHARGES
 
@<TRIPOS>ATOM
       1    C1      18.730026   19.408159   23.614851 C.3        1 MOL1        -0.1685
       2    H1      18.414496   18.487566   23.105507 H          1 MOL1         0.0832
       3    H2      17.962900   19.611235   24.374600 H          1 MOL1         0.0832
       4    C2      18.751491   20.602470   22.633706 C.3        1 MOL1        -0.1685
       5    H3      17.722735   20.964382   22.499806 H          1 MOL1         0.0832
       6    H4      19.289905   21.441395   23.093763 H          1 MOL1         0.0832
       7    C3      19.334271   20.306729   21.228509 C.3        1 MOL1        -0.1685
       8    H5      19.712539   21.246933   20.803958 H          1 MOL1         0.0832
       9    H6      18.511275   19.999769   20.568674 H          1 MOL1         0.0832
      10    C4      20.441159   19.222057   21.131101 C.3        1 MOL1        -0.1761
      11    H7      19.974071   18.229108   21.160028 H          1 MOL1         0.0832
      12    H8      20.900427   19.295006   20.136740 H          1 MOL1         0.0832
      13    C5      21.569888   19.270641   22.186369 C.3        1 MOL1         0.1218
      14    H9      22.433584   18.735506   21.766202 H          1 MOL1         0.0789
      15    C6      21.194114   18.549954   23.500779 C.3        1 MOL1        -0.1761
      16    H10     20.906552   17.516981   23.265543 H          1 MOL1         0.0832
      17    H11     22.098268   18.471534   24.118517 H          1 MOL1         0.0832
      18    C7      20.075166   19.201144   24.350896 C.3        1 MOL1        -0.1685
      19    H12     19.895979   18.556056   25.221795 H          1 MOL1         0.0832
      20    H13     20.427197   20.157810   24.759971 H          1 MOL1         0.0832
      21    O1      21.944618   20.613027   22.454227 O.3        1 MOL1        -0.5509
      22    H14     21.113047   21.040057   22.741317 H          1 MOL1         0.3779
@<TRIPOS>BOND
    1     1     2    1
    2     1     3    1
    3     1     4    1
    4     4     5    1
    5     4     6    1
    6     4     7    1
    7     7     8    1
    8     7     9    1
    9     7    10    1
   10    10    11    1
   11    10    12    1
   12    10    13    1
   13    13    14    1
   14    13    15    1
   15    15    16    1
   16    15    17    1
   17     1    18    1
   18    15    18    1
   19    18    19    1
   20    18    20    1
   21    13    21    1
   22    21    22    1
@<TRIPOS>SUBSTRUCTURE
       1 MOL1            1 RESIDUE      1      MOL     
@<SCITEGIC>MOL_PROPERTY
VConf Rank
SciTegic.value.IntegerValue
615

@<SCITEGIC>MOL_PROPERTY
Conf_Id
SciTegic.value.IntegerValue
99

@<SCITEGIC>MOL_PROPERTY
Delta U+W
SciTegic.value.DoubleValue
-3.852

@<SCITEGIC>MOL_PROPERTY
U+W
SciTegic.value.DoubleValue
2.572

@<SCITEGIC>MOL_PROPERTY
Grad RMS
SciTegic.value.DoubleValue
0.000000

@<SCITEGIC>MOL_PROPERTY
U
SciTegic.value.DoubleValue
3.922

@<SCITEGIC>MOL_PROPERTY
W
SciTegic.value.DoubleValue
-1.350

@<SCITEGIC>MOL_PROPERTY
W(PB)
SciTegic.value.DoubleValue
-3.345

@<SCITEGIC>MOL_PROPERTY
W(SA)
SciTegic.value.DoubleValue
1.995

@<SCITEGIC>MOL_PROPERTY
Valence
SciTegic.value.DoubleValue
12.571

@<SCITEGIC>MOL_PROPERTY
Coulomb
SciTegic.value.DoubleValue
-10.581

@<SCITEGIC>MOL_PROPERTY
VdW
SciTegic.value.DoubleValue
1.932

@<SCITEGIC>MOL_PROPERTY
VdW6
SciTegic.value.DoubleValue
-10.483

@<SCITEGIC>MOL_PROPERTY
VdW12
SciTegic.value.DoubleValue
12.415

@<SCITEGIC>MOL_PROPERTY
Bond
SciTegic.value.DoubleValue
0.268

@<SCITEGIC>MOL_PROPERTY
Angle
SciTegic.value.DoubleValue
3.728

@<SCITEGIC>MOL_PROPERTY
Pdih
SciTegic.value.DoubleValue
8.575

@<SCITEGIC>MOL_PROPERTY
Idih
SciTegic.value.DoubleValue
0.000

@<SCITEGIC>MOL_PROPERTY
Tether
SciTegic.value.DoubleValue
0.000

@<TRIPOS>MOLECULE
guest-5_confgen4.mol2 : confsearch ligand conformer 616
          22          22           1
SMALL
USER_CHARGES
 
@<TRIPOS>ATOM
       1    C1      21.319708   19.069508   21.699078 C.3        1 MOL1        -0.1685
       2    H1      22.336186   19.162054   21.292261 H          1 MOL1         0.0832
       3    H2      20.912897   18.158613   21.239916 H          1 MOL1         0.0832
       4    C2      20.505301   20.313143   21.236515 C.3        1 MOL1        -0.1685
       5    H3      21.169231   20.943889   20.629352 H          1 MOL1         0.0832
       6    H4      19.702507   20.006777   20.552618 H          1 MOL1         0.0832
       7    C3      19.916229   21.197235   22.365287 C.3        1 MOL1        -0.1685
       8    H5      19.541987   22.127651   21.916965 H          1 MOL1         0.0832
       9    H6      20.718868   21.519818   23.040031 H          1 MOL1         0.0832
      10    C4      18.759045   20.567977   23.189781 C.3        1 MOL1        -0.1761
      11    H7      18.704940   21.086292   24.155785 H          1 MOL1         0.0832
      12    H8      17.810419   20.795054   22.685261 H          1 MOL1         0.0832
      13    C5      18.793521   19.042383   23.453474 C.3        1 MOL1         0.1218
      14    H9      18.037914   18.834398   24.224561 H          1 MOL1         0.0789
      15    C6      20.134715   18.466657   23.971046 C.3        1 MOL1        -0.1761
      16    H10     20.243105   18.736405   25.029454 H          1 MOL1         0.0832
      17    H11     20.051691   17.371701   23.957826 H          1 MOL1         0.0832
      18    C7      21.440840   18.868705   23.231318 C.3        1 MOL1        -0.1685
      19    H12     21.863973   19.770639   23.690710 H          1 MOL1         0.0832
      20    H13     22.188332   18.086189   23.420128 H          1 MOL1         0.0832
      21    O1      18.397897   18.347558   22.281321 O.3        1 MOL1        -0.5509
      22    H14     19.096566   18.563256   21.631499 H          1 MOL1         0.3779
@<TRIPOS>BOND
    1     1     2    1
    2     1     3    1
    3     1     4    1
    4     4     5    1
    5     4     6    1
    6     4     7    1
    7     7     8    1
    8     7     9    1
    9     7    10    1
   10    10    11    1
   11    10    12    1
   12    10    13    1
   13    13    14    1
   14    13    15    1
   15    15    16    1
   16    15    17    1
   17     1    18    1
   18    15    18    1
   19    18    19    1
   20    18    20    1
   21    13    21    1
   22    21    22    1
@<TRIPOS>SUBSTRUCTURE
       1 MOL1            1 RESIDUE      1      MOL     
@<SCITEGIC>MOL_PROPERTY
VConf Rank
SciTegic.value.IntegerValue
616

@<SCITEGIC>MOL_PROPERTY
Conf_Id
SciTegic.value.IntegerValue
98

@<SCITEGIC>MOL_PROPERTY
Delta U+W
SciTegic.value.DoubleValue
0.930

@<SCITEGIC>MOL_PROPERTY
U+W
SciTegic.value.DoubleValue
7.353

@<SCITEGIC>MOL_PROPERTY
Grad RMS
SciTegic.value.DoubleValue
0.000000

@<SCITEGIC>MOL_PROPERTY
U
SciTegic.value.DoubleValue
8.455

@<SCITEGIC>MOL_PROPERTY
W
SciTegic.value.DoubleValue
-1.102

@<SCITEGIC>MOL_PROPERTY
W(PB)
SciTegic.value.DoubleValue
-3.101

@<SCITEGIC>MOL_PROPERTY
W(SA)
SciTegic.value.DoubleValue
2.000

@<SCITEGIC>MOL_PROPERTY
Valence
SciTegic.value.DoubleValue
15.601

@<SCITEGIC>MOL_PROPERTY
Coulomb
SciTegic.value.DoubleValue
-10.573

@<SCITEGIC>MOL_PROPERTY
VdW
SciTegic.value.DoubleValue
3.427

@<SCITEGIC>MOL_PROPERTY
VdW6
SciTegic.value.DoubleValue
-11.360

@<SCITEGIC>MOL_PROPERTY
VdW12
SciTegic.value.DoubleValue
14.787

@<SCITEGIC>MOL_PROPERTY
Bond
SciTegic.value.DoubleValue
0.471

@<SCITEGIC>MOL_PROPERTY
Angle
SciTegic.value.DoubleValue
5.445

@<SCITEGIC>MOL_PROPERTY
Pdih
SciTegic.value.DoubleValue
9.685

@<SCITEGIC>MOL_PROPERTY
Idih
SciTegic.value.DoubleValue
0.000

@<SCITEGIC>MOL_PROPERTY
Tether
SciTegic.value.DoubleValue
0.000

@<TRIPOS>MOLECULE
guest-5_confgen4.mol2 : confsearch ligand conformer 617
          22          22           1
SMALL
USER_CHARGES
 
@<TRIPOS>ATOM
       1    C1      20.031659   19.653980   20.940539 C.3        1 MOL1        -0.1685
       2    H1      20.634758   20.563024   21.061751 H          1 MOL1         0.0832
       3    H2      19.958327   19.503121   19.854917 H          1 MOL1         0.0832
       4    C2      18.607060   19.891537   21.502894 C.3        1 MOL1        -0.1685
       5    H3      18.169232   20.733414   20.949337 H          1 MOL1         0.0832
       6    H4      17.972654   19.024069   21.275620 H          1 MOL1         0.0832
       7    C3      18.512356   20.209615   23.020953 C.3        1 MOL1        -0.1685
       8    H5      18.168007   19.323818   23.570318 H          1 MOL1         0.0832
       9    H6      17.720686   20.957283   23.165468 H          1 MOL1         0.0832
      10    C4      19.820904   20.740646   23.663929 C.3        1 MOL1        -0.1761
      11    H7      20.194748   21.586221   23.073277 H          1 MOL1         0.0832
      12    H8      19.574044   21.169397   24.644552 H          1 MOL1         0.0832
      13    C5      20.962719   19.697536   23.842954 C.3        1 MOL1         0.1218
      14    H9      21.899008   20.156958   23.494584 H          1 MOL1         0.0789
      15    C6      20.775969   18.354134   23.094186 C.3        1 MOL1        -0.1761
      16    H10     21.576220   17.665423   23.394741 H          1 MOL1         0.0832
      17    H11     19.847228   17.873528   23.424409 H          1 MOL1         0.0832
      18    C7      20.786944   18.448487   21.547970 C.3        1 MOL1        -0.1685
      19    H12     21.828730   18.488421   21.201703 H          1 MOL1         0.0832
      20    H13     20.369075   17.518380   21.139364 H          1 MOL1         0.0832
      21    O1      21.087481   19.399388   25.228854 O.3        1 MOL1        -0.5509
      22    H14     21.847447   18.787422   25.319016 H          1 MOL1         0.3779
@<TRIPOS>BOND
    1     1     2    1
    2     1     3    1
    3     1     4    1
    4     4     5    1
    5     4     6    1
    6     4     7    1
    7     7     8    1
    8     7     9    1
    9     7    10    1
   10    10    11    1
   11    10    12    1
   12    10    13    1
   13    13    14    1
   14    13    15    1
   15    15    16    1
   16    15    17    1
   17     1    18    1
   18    15    18    1
   19    18    19    1
   20    18    20    1
   21    13    21    1
   22    21    22    1
@<TRIPOS>SUBSTRUCTURE
       1 MOL1            1 RESIDUE      1      MOL     
@<SCITEGIC>MOL_PROPERTY
VConf Rank
SciTegic.value.IntegerValue
617

@<SCITEGIC>MOL_PROPERTY
Conf_Id
SciTegic.value.IntegerValue
141

@<SCITEGIC>MOL_PROPERTY
Delta U+W
SciTegic.value.DoubleValue
0.000

@<SCITEGIC>MOL_PROPERTY
U+W
SciTegic.value.DoubleValue
6.423

@<SCITEGIC>MOL_PROPERTY
Grad RMS
SciTegic.value.DoubleValue
0.000000

@<SCITEGIC>MOL_PROPERTY
U
SciTegic.value.DoubleValue
8.781

@<SCITEGIC>MOL_PROPERTY
W
SciTegic.value.DoubleValue
-2.358

@<SCITEGIC>MOL_PROPERTY
W(PB)
SciTegic.value.DoubleValue
-4.373

@<SCITEGIC>MOL_PROPERTY
W(SA)
SciTegic.value.DoubleValue
2.015

@<SCITEGIC>MOL_PROPERTY
Valence
SciTegic.value.DoubleValue
13.328

@<SCITEGIC>MOL_PROPERTY
Coulomb
SciTegic.value.DoubleValue
-8.387

@<SCITEGIC>MOL_PROPERTY
VdW
SciTegic.value.DoubleValue
3.840

@<SCITEGIC>MOL_PROPERTY
VdW6
SciTegic.value.DoubleValue
-9.744

@<SCITEGIC>MOL_PROPERTY
VdW12
SciTegic.value.DoubleValue
13.584

@<SCITEGIC>MOL_PROPERTY
Bond
SciTegic.value.DoubleValue
0.436

@<SCITEGIC>MOL_PROPERTY
Angle
SciTegic.value.DoubleValue
3.478

@<SCITEGIC>MOL_PROPERTY
Pdih
SciTegic.value.DoubleValue
9.415

@<SCITEGIC>MOL_PROPERTY
Idih
SciTegic.value.DoubleValue
0.000

@<SCITEGIC>MOL_PROPERTY
Tether
SciTegic.value.DoubleValue
0.000

@<TRIPOS>MOLECULE
guest-5_confgen4.mol2 : confsearch ligand conformer 618
          22          22           1
SMALL
USER_CHARGES
 
@<TRIPOS>ATOM
       1    C1      21.709877   19.826669   22.471249 C.3        1 MOL1        -0.1685
       2    H1      21.727006   18.939341   21.823974 H          1 MOL1         0.0832
       3    H2      22.737220   20.215754   22.480371 H          1 MOL1         0.0832
       4    C2      21.339543   19.444547   23.924690 C.3        1 MOL1        -0.1685
       5    H3      22.165031   18.860576   24.354113 H          1 MOL1         0.0832
       6    H4      21.269985   20.355803   24.534324 H          1 MOL1         0.0832
       7    C3      20.037659   18.625150   24.079666 C.3        1 MOL1        -0.1685
       8    H5      19.851464   18.477785   25.152252 H          1 MOL1         0.0832
       9    H6      20.186778   17.620553   23.660729 H          1 MOL1         0.0832
      10    C4      18.780778   19.267714   23.443629 C.3        1 MOL1        -0.1761
      11    H7      17.904224   18.721067   23.815536 H          1 MOL1         0.0832
      12    H8      18.661367   20.304396   23.784259 H          1 MOL1         0.0832
      13    C5      18.794297   19.203395   21.899833 C.3        1 MOL1         0.1218
      14    H9      19.311352   18.281125   21.598312 H          1 MOL1         0.0789
      15    C6      19.494529   20.398428   21.213635 C.3        1 MOL1        -0.1761
      16    H10     19.727047   20.099090   20.183499 H          1 MOL1         0.0832
      17    H11     18.788035   21.235220   21.131442 H          1 MOL1         0.0832
      18    C7      20.789447   20.921997   21.883791 C.3        1 MOL1        -0.1685
      19    H12     21.351318   21.495935   21.134311 H          1 MOL1         0.0832
      20    H13     20.530081   21.642214   22.671652 H          1 MOL1         0.0832
      21    O1      17.452248   19.150746   21.431483 O.3        1 MOL1        -0.5509
      22    H14     17.049772   18.345004   21.818021 H          1 MOL1         0.3779
@<TRIPOS>BOND
    1     1     2    1
    2     1     3    1
    3     1     4    1
    4     4     5    1
    5     4     6    1
    6     4     7    1
    7     7     8    1
    8     7     9    1
    9     7    10    1
   10    10    11    1
   11    10    12    1
   12    10    13    1
   13    13    14    1
   14    13    15    1
   15    15    16    1
   16    15    17    1
   17     1    18    1
   18    15    18    1
   19    18    19    1
   20    18    20    1
   21    13    21    1
   22    21    22    1
@<TRIPOS>SUBSTRUCTURE
       1 MOL1            1 RESIDUE      1      MOL     
@<SCITEGIC>MOL_PROPERTY
VConf Rank
SciTegic.value.IntegerValue
618

@<SCITEGIC>MOL_PROPERTY
Conf_Id
SciTegic.value.IntegerValue
144

@<SCITEGIC>MOL_PROPERTY
Delta U+W
SciTegic.value.DoubleValue
-3.291

@<SCITEGIC>MOL_PROPERTY
U+W
SciTegic.value.DoubleValue
3.132

@<SCITEGIC>MOL_PROPERTY
Grad RMS
SciTegic.value.DoubleValue
0.000000

@<SCITEGIC>MOL_PROPERTY
U
SciTegic.value.DoubleValue
5.411

@<SCITEGIC>MOL_PROPERTY
W
SciTegic.value.DoubleValue
-2.279

@<SCITEGIC>MOL_PROPERTY
W(PB)
SciTegic.value.DoubleValue
-4.300

@<SCITEGIC>MOL_PROPERTY
W(SA)
SciTegic.value.DoubleValue
2.021

@<SCITEGIC>MOL_PROPERTY
Valence
SciTegic.value.DoubleValue
11.909

@<SCITEGIC>MOL_PROPERTY
Coulomb
SciTegic.value.DoubleValue
-8.733

@<SCITEGIC>MOL_PROPERTY
VdW
SciTegic.value.DoubleValue
2.236

@<SCITEGIC>MOL_PROPERTY
VdW6
SciTegic.value.DoubleValue
-8.936

@<SCITEGIC>MOL_PROPERTY
VdW12
SciTegic.value.DoubleValue
11.172

@<SCITEGIC>MOL_PROPERTY
Bond
SciTegic.value.DoubleValue
0.223

@<SCITEGIC>MOL_PROPERTY
Angle
SciTegic.value.DoubleValue
2.457

@<SCITEGIC>MOL_PROPERTY
Pdih
SciTegic.value.DoubleValue
9.228

@<SCITEGIC>MOL_PROPERTY
Idih
SciTegic.value.DoubleValue
0.000

@<SCITEGIC>MOL_PROPERTY
Tether
SciTegic.value.DoubleValue
0.000

@<TRIPOS>MOLECULE
guest-5_confgen4.mol2 : confsearch ligand conformer 619
          22          22           1
SMALL
USER_CHARGES
 
@<TRIPOS>ATOM
       1    C1      20.324795   20.003793   24.281730 C.3        1 MOL1        -0.1685
       2    H1      20.380353   20.509705   25.255309 H          1 MOL1         0.0832
       3    H2      20.984002   19.128243   24.356177 H          1 MOL1         0.0832
       4    C2      20.834268   20.986991   23.201992 C.3        1 MOL1        -0.1685
       5    H3      20.021029   21.666953   22.913773 H          1 MOL1         0.0832
       6    H4      21.609704   21.628339   23.642867 H          1 MOL1         0.0832
       7    C3      21.428344   20.322139   21.936699 C.3        1 MOL1        -0.1685
       8    H5      22.477785   20.060653   22.129608 H          1 MOL1         0.0832
       9    H6      21.450672   21.072264   21.134308 H          1 MOL1         0.0832
      10    C4      20.702550   19.054764   21.421796 C.3        1 MOL1        -0.1761
      11    H7      21.005373   18.895026   20.378124 H          1 MOL1         0.0832
      12    H8      21.068349   18.180099   21.975011 H          1 MOL1         0.0832
      13    C5      19.160696   19.106250   21.509137 C.3        1 MOL1         0.1218
      14    H9      18.816007   20.135043   21.332374 H          1 MOL1         0.0789
      15    C6      18.627396   18.607522   22.871428 C.3        1 MOL1        -0.1761
      16    H10     17.547472   18.428806   22.782235 H          1 MOL1         0.0832
      17    H11     19.077407   17.634329   23.106950 H          1 MOL1         0.0832
      18    C7      18.855313   19.572419   24.059175 C.3        1 MOL1        -0.1685
      19    H12     18.228837   20.465329   23.928154 H          1 MOL1         0.0832
      20    H13     18.491617   19.083367   24.973145 H          1 MOL1         0.0832
      21    O1      18.627444   18.263098   20.496739 O.3        1 MOL1        -0.5509
      22    H14     18.956659   17.360495   20.686696 H          1 MOL1         0.3779
@<TRIPOS>BOND
    1     1     2    1
    2     1     3    1
    3     1     4    1
    4     4     5    1
    5     4     6    1
    6     4     7    1
    7     7     8    1
    8     7     9    1
    9     7    10    1
   10    10    11    1
   11    10    12    1
   12    10    13    1
   13    13    14    1
   14    13    15    1
   15    15    16    1
   16    15    17    1
   17     1    18    1
   18    15    18    1
   19    18    19    1
   20    18    20    1
   21    13    21    1
   22    21    22    1
@<TRIPOS>SUBSTRUCTURE
       1 MOL1            1 RESIDUE      1      MOL     
@<SCITEGIC>MOL_PROPERTY
VConf Rank
SciTegic.value.IntegerValue
619

@<SCITEGIC>MOL_PROPERTY
Conf_Id
SciTegic.value.IntegerValue
76

@<SCITEGIC>MOL_PROPERTY
Delta U+W
SciTegic.value.DoubleValue
-3.175

@<SCITEGIC>MOL_PROPERTY
U+W
SciTegic.value.DoubleValue
3.248

@<SCITEGIC>MOL_PROPERTY
Grad RMS
SciTegic.value.DoubleValue
0.000000

@<SCITEGIC>MOL_PROPERTY
U
SciTegic.value.DoubleValue
5.336

@<SCITEGIC>MOL_PROPERTY
W
SciTegic.value.DoubleValue
-2.088

@<SCITEGIC>MOL_PROPERTY
W(PB)
SciTegic.value.DoubleValue
-4.098

@<SCITEGIC>MOL_PROPERTY
W(SA)
SciTegic.value.DoubleValue
2.010

@<SCITEGIC>MOL_PROPERTY
Valence
SciTegic.value.DoubleValue
12.390

@<SCITEGIC>MOL_PROPERTY
Coulomb
SciTegic.value.DoubleValue
-9.270

@<SCITEGIC>MOL_PROPERTY
VdW
SciTegic.value.DoubleValue
2.216

@<SCITEGIC>MOL_PROPERTY
VdW6
SciTegic.value.DoubleValue
-8.967

@<SCITEGIC>MOL_PROPERTY
VdW12
SciTegic.value.DoubleValue
11.183

@<SCITEGIC>MOL_PROPERTY
Bond
SciTegic.value.DoubleValue
0.218

@<SCITEGIC>MOL_PROPERTY
Angle
SciTegic.value.DoubleValue
2.426

@<SCITEGIC>MOL_PROPERTY
Pdih
SciTegic.value.DoubleValue
9.745

@<SCITEGIC>MOL_PROPERTY
Idih
SciTegic.value.DoubleValue
0.000

@<SCITEGIC>MOL_PROPERTY
Tether
SciTegic.value.DoubleValue
0.000

@<TRIPOS>MOLECULE
guest-5_confgen4.mol2 : confsearch ligand conformer 620
          22          22           1
SMALL
USER_CHARGES
 
@<TRIPOS>ATOM
       1    C1      21.366397   19.567945   21.333771 C.3        1 MOL1        -0.1685
       2    H1      22.167084   20.305515   21.186553 H          1 MOL1         0.0832
       3    H2      21.532067   18.792393   20.573583 H          1 MOL1         0.0832
       4    C2      20.011722   20.262080   21.055011 C.3        1 MOL1        -0.1685
       5    H3      20.050528   21.299356   21.414222 H          1 MOL1         0.0832
       6    H4      19.884466   20.333056   19.966181 H          1 MOL1         0.0832
       7    C3      18.777040   19.554061   21.659835 C.3        1 MOL1        -0.1685
       8    H5      18.883940   18.462033   21.606145 H          1 MOL1         0.0832
       9    H6      17.903670   19.805358   21.043097 H          1 MOL1         0.0832
      10    C4      18.476217   20.007694   23.110973 C.3        1 MOL1        -0.1761
      11    H7      18.446411   21.104189   23.147334 H          1 MOL1         0.0832
      12    H8      17.464364   19.676328   23.378861 H          1 MOL1         0.0832
      13    C5      19.447745   19.499875   24.200629 C.3        1 MOL1         0.1218
      14    H9      19.206839   20.050235   25.121588 H          1 MOL1         0.0789
      15    C6      20.950250   19.738190   23.907080 C.3        1 MOL1        -0.1761
      16    H10     21.132197   20.808238   23.743465 H          1 MOL1         0.0832
      17    H11     21.510150   19.478312   24.814694 H          1 MOL1         0.0832
      18    C7      21.529827   18.915307   22.727176 C.3        1 MOL1        -0.1685
      19    H12     22.602568   18.755608   22.900801 H          1 MOL1         0.0832
      20    H13     21.085120   17.911569   22.713537 H          1 MOL1         0.0832
      21    O1      19.208277   18.115863   24.435554 O.3        1 MOL1        -0.5509
      22    H14     19.875341   17.824603   25.090135 H          1 MOL1         0.3779
@<TRIPOS>BOND
    1     1     2    1
    2     1     3    1
    3     1     4    1
    4     4     5    1
    5     4     6    1
    6     4     7    1
    7     7     8    1
    8     7     9    1
    9     7    10    1
   10    10    11    1
   11    10    12    1
   12    10    13    1
   13    13    14    1
   14    13    15    1
   15    15    16    1
   16    15    17    1
   17     1    18    1
   18    15    18    1
   19    18    19    1
   20    18    20    1
   21    13    21    1
   22    21    22    1
@<TRIPOS>SUBSTRUCTURE
       1 MOL1            1 RESIDUE      1      MOL     
@<SCITEGIC>MOL_PROPERTY
VConf Rank
SciTegic.value.IntegerValue
620

@<SCITEGIC>MOL_PROPERTY
Conf_Id
SciTegic.value.IntegerValue
95

@<SCITEGIC>MOL_PROPERTY
Delta U+W
SciTegic.value.DoubleValue
-2.289

@<SCITEGIC>MOL_PROPERTY
U+W
SciTegic.value.DoubleValue
4.134

@<SCITEGIC>MOL_PROPERTY
Grad RMS
SciTegic.value.DoubleValue
0.000000

@<SCITEGIC>MOL_PROPERTY
U
SciTegic.value.DoubleValue
6.373

@<SCITEGIC>MOL_PROPERTY
W
SciTegic.value.DoubleValue
-2.240

@<SCITEGIC>MOL_PROPERTY
W(PB)
SciTegic.value.DoubleValue
-4.254

@<SCITEGIC>MOL_PROPERTY
W(SA)
SciTegic.value.DoubleValue
2.015

@<SCITEGIC>MOL_PROPERTY
Valence
SciTegic.value.DoubleValue
12.093

@<SCITEGIC>MOL_PROPERTY
Coulomb
SciTegic.value.DoubleValue
-8.058

@<SCITEGIC>MOL_PROPERTY
VdW
SciTegic.value.DoubleValue
2.339

@<SCITEGIC>MOL_PROPERTY
VdW6
SciTegic.value.DoubleValue
-9.683

@<SCITEGIC>MOL_PROPERTY
VdW12
SciTegic.value.DoubleValue
12.022

@<SCITEGIC>MOL_PROPERTY
Bond
SciTegic.value.DoubleValue
0.268

@<SCITEGIC>MOL_PROPERTY
Angle
SciTegic.value.DoubleValue
3.005

@<SCITEGIC>MOL_PROPERTY
Pdih
SciTegic.value.DoubleValue
8.820

@<SCITEGIC>MOL_PROPERTY
Idih
SciTegic.value.DoubleValue
0.000

@<SCITEGIC>MOL_PROPERTY
Tether
SciTegic.value.DoubleValue
0.000

@<TRIPOS>MOLECULE
guest-5_confgen4.mol2 : confsearch ligand conformer 621
          22          22           1
SMALL
USER_CHARGES
 
@<TRIPOS>ATOM
       1    C1      20.355229   19.005348   20.926868 C.3        1 MOL1        -0.1685
       2    H1      21.120714   18.296411   20.583074 H          1 MOL1         0.0832
       3    H2      19.765348   19.261917   20.036361 H          1 MOL1         0.0832
       4    C2      21.069901   20.278907   21.438355 C.3        1 MOL1        -0.1685
       5    H3      22.008646   19.997469   21.934369 H          1 MOL1         0.0832
       6    H4      21.367056   20.875178   20.564879 H          1 MOL1         0.0832
       7    C3      20.230761   21.164363   22.388791 C.3        1 MOL1        -0.1685
       8    H5      19.177290   21.186246   22.078084 H          1 MOL1         0.0832
       9    H6      20.595591   22.196792   22.302681 H          1 MOL1         0.0832
      10    C4      20.362295   20.739264   23.873143 C.3        1 MOL1        -0.1761
      11    H7      21.426122   20.643936   24.126287 H          1 MOL1         0.0832
      12    H8      19.984408   21.552713   24.505980 H          1 MOL1         0.0832
      13    C5      19.639349   19.433351   24.275229 C.3        1 MOL1         0.1218
      14    H9      19.972729   19.186368   25.293540 H          1 MOL1         0.0789
      15    C6      19.954420   18.205855   23.383983 C.3        1 MOL1        -0.1761
      16    H10     21.035197   18.015151   23.377492 H          1 MOL1         0.0832
      17    H11     19.498422   17.330666   23.864543 H          1 MOL1         0.0832
      18    C7      19.419143   18.291080   21.930829 C.3        1 MOL1        -0.1685
      19    H12     19.241385   17.272577   21.560329 H          1 MOL1         0.0832
      20    H13     18.434947   18.777830   21.923586 H          1 MOL1         0.0832
      21    O1      18.234173   19.663595   24.312119 O.3        1 MOL1        -0.5509
      22    H14     18.093209   20.454799   24.870967 H          1 MOL1         0.3779
@<TRIPOS>BOND
    1     1     2    1
    2     1     3    1
    3     1     4    1
    4     4     5    1
    5     4     6    1
    6     4     7    1
    7     7     8    1
    8     7     9    1
    9     7    10    1
   10    10    11    1
   11    10    12    1
   12    10    13    1
   13    13    14    1
   14    13    15    1
   15    15    16    1
   16    15    17    1
   17     1    18    1
   18    15    18    1
   19    18    19    1
   20    18    20    1
   21    13    21    1
   22    21    22    1
@<TRIPOS>SUBSTRUCTURE
       1 MOL1            1 RESIDUE      1      MOL     
@<SCITEGIC>MOL_PROPERTY
VConf Rank
SciTegic.value.IntegerValue
621

@<SCITEGIC>MOL_PROPERTY
Conf_Id
SciTegic.value.IntegerValue
41

@<SCITEGIC>MOL_PROPERTY
Delta U+W
SciTegic.value.DoubleValue
-2.114

@<SCITEGIC>MOL_PROPERTY
U+W
SciTegic.value.DoubleValue
4.310

@<SCITEGIC>MOL_PROPERTY
Grad RMS
SciTegic.value.DoubleValue
0.000000

@<SCITEGIC>MOL_PROPERTY
U
SciTegic.value.DoubleValue
6.598

@<SCITEGIC>MOL_PROPERTY
W
SciTegic.value.DoubleValue
-2.289

@<SCITEGIC>MOL_PROPERTY
W(PB)
SciTegic.value.DoubleValue
-4.294

@<SCITEGIC>MOL_PROPERTY
W(SA)
SciTegic.value.DoubleValue
2.005

@<SCITEGIC>MOL_PROPERTY
Valence
SciTegic.value.DoubleValue
12.082

@<SCITEGIC>MOL_PROPERTY
Coulomb
SciTegic.value.DoubleValue
-7.801

@<SCITEGIC>MOL_PROPERTY
VdW
SciTegic.value.DoubleValue
2.317

@<SCITEGIC>MOL_PROPERTY
VdW6
SciTegic.value.DoubleValue
-9.658

@<SCITEGIC>MOL_PROPERTY
VdW12
SciTegic.value.DoubleValue
11.975

@<SCITEGIC>MOL_PROPERTY
Bond
SciTegic.value.DoubleValue
0.267

@<SCITEGIC>MOL_PROPERTY
Angle
SciTegic.value.DoubleValue
3.051

@<SCITEGIC>MOL_PROPERTY
Pdih
SciTegic.value.DoubleValue
8.764

@<SCITEGIC>MOL_PROPERTY
Idih
SciTegic.value.DoubleValue
0.000

@<SCITEGIC>MOL_PROPERTY
Tether
SciTegic.value.DoubleValue
0.000

@<TRIPOS>MOLECULE
guest-5_confgen4.mol2 : confsearch ligand conformer 622
          22          22           1
SMALL
USER_CHARGES
 
@<TRIPOS>ATOM
       1    C1      20.574903   18.591867   23.996523 C.3        1 MOL1        -0.1685
       2    H1      20.718693   17.802323   24.746519 H          1 MOL1         0.0832
       3    H2      21.478193   19.216476   24.029814 H          1 MOL1         0.0832
       4    C2      19.329159   19.410500   24.403154 C.3        1 MOL1        -0.1685
       5    H3      18.430693   18.786486   24.303419 H          1 MOL1         0.0832
       6    H4      19.405964   19.659389   25.470260 H          1 MOL1         0.0832
       7    C3      19.134994   20.723339   23.613233 C.3        1 MOL1        -0.1685
       8    H5      19.930289   21.431757   23.880703 H          1 MOL1         0.0832
       9    H6      18.200299   21.188277   23.954265 H          1 MOL1         0.0832
      10    C4      19.065138   20.561024   22.070521 C.3        1 MOL1        -0.1761
      11    H7      18.324174   19.796215   21.805382 H          1 MOL1         0.0832
      12    H8      18.681822   21.501635   21.654705 H          1 MOL1         0.0832
      13    C5      20.409081   20.260995   21.357899 C.3        1 MOL1         0.1218
      14    H9      20.259432   20.490709   20.292951 H          1 MOL1         0.0789
      15    C6      20.892764   18.788701   21.417419 C.3        1 MOL1        -0.1761
      16    H10     20.565216   18.287161   20.497510 H          1 MOL1         0.0832
      17    H11     21.989926   18.770811   21.380184 H          1 MOL1         0.0832
      18    C7      20.423580   17.922552   22.612639 C.3        1 MOL1        -0.1685
      19    H12     19.380819   17.612214   22.461796 H          1 MOL1         0.0832
      20    H13     21.010850   16.994252   22.605416 H          1 MOL1         0.0832
      21    O1      21.434472   21.122740   21.844612 O.3        1 MOL1        -0.5509
      22    H14     22.243427   20.916209   21.333882 H          1 MOL1         0.3779
@<TRIPOS>BOND
    1     1     2    1
    2     1     3    1
    3     1     4    1
    4     4     5    1
    5     4     6    1
    6     4     7    1
    7     7     8    1
    8     7     9    1
    9     7    10    1
   10    10    11    1
   11    10    12    1
   12    10    13    1
   13    13    14    1
   14    13    15    1
   15    15    16    1
   16    15    17    1
   17     1    18    1
   18    15    18    1
   19    18    19    1
   20    18    20    1
   21    13    21    1
   22    21    22    1
@<TRIPOS>SUBSTRUCTURE
       1 MOL1            1 RESIDUE      1      MOL     
@<SCITEGIC>MOL_PROPERTY
VConf Rank
SciTegic.value.IntegerValue
622

@<SCITEGIC>MOL_PROPERTY
Conf_Id
SciTegic.value.IntegerValue
104

@<SCITEGIC>MOL_PROPERTY
Delta U+W
SciTegic.value.DoubleValue
-1.172

@<SCITEGIC>MOL_PROPERTY
U+W
SciTegic.value.DoubleValue
5.252

@<SCITEGIC>MOL_PROPERTY
Grad RMS
SciTegic.value.DoubleValue
0.000000

@<SCITEGIC>MOL_PROPERTY
U
SciTegic.value.DoubleValue
7.482

@<SCITEGIC>MOL_PROPERTY
W
SciTegic.value.DoubleValue
-2.230

@<SCITEGIC>MOL_PROPERTY
W(PB)
SciTegic.value.DoubleValue
-4.220

@<SCITEGIC>MOL_PROPERTY
W(SA)
SciTegic.value.DoubleValue
1.990

@<SCITEGIC>MOL_PROPERTY
Valence
SciTegic.value.DoubleValue
12.309

@<SCITEGIC>MOL_PROPERTY
Coulomb
SciTegic.value.DoubleValue
-7.084

@<SCITEGIC>MOL_PROPERTY
VdW
SciTegic.value.DoubleValue
2.258

@<SCITEGIC>MOL_PROPERTY
VdW6
SciTegic.value.DoubleValue
-9.770

@<SCITEGIC>MOL_PROPERTY
VdW12
SciTegic.value.DoubleValue
12.028

@<SCITEGIC>MOL_PROPERTY
Bond
SciTegic.value.DoubleValue
0.284

@<SCITEGIC>MOL_PROPERTY
Angle
SciTegic.value.DoubleValue
3.491

@<SCITEGIC>MOL_PROPERTY
Pdih
SciTegic.value.DoubleValue
8.535

@<SCITEGIC>MOL_PROPERTY
Idih
SciTegic.value.DoubleValue
0.000

@<SCITEGIC>MOL_PROPERTY
Tether
SciTegic.value.DoubleValue
0.000

@<TRIPOS>MOLECULE
guest-5_confgen4.mol2 : confsearch ligand conformer 623
          22          22           1
SMALL
USER_CHARGES
 
@<TRIPOS>ATOM
       1    C1      20.737936   18.480308   23.681530 C.3        1 MOL1        -0.1685
       2    H1      21.761270   18.712023   23.356600 H          1 MOL1         0.0832
       3    H2      20.831236   17.673640   24.421477 H          1 MOL1         0.0832
       4    C2      19.892230   17.945525   22.503280 C.3        1 MOL1        -0.1685
       5    H3      20.140346   16.886755   22.346141 H          1 MOL1         0.0832
       6    H4      18.831345   17.949546   22.785847 H          1 MOL1         0.0832
       7    C3      20.082610   18.680306   21.152160 C.3        1 MOL1        -0.1685
       8    H5      19.171144   18.548114   20.552936 H          1 MOL1         0.0832
       9    H6      20.877297   18.171901   20.589198 H          1 MOL1         0.0832
      10    C4      20.441316   20.190094   21.207611 C.3        1 MOL1        -0.1761
      11    H7      21.510821   20.296856   21.430582 H          1 MOL1         0.0832
      12    H8      20.314812   20.605630   20.199480 H          1 MOL1         0.0832
      13    C5      19.638441   21.069156   22.193826 C.3        1 MOL1         0.1218
      14    H9      19.716048   22.108368   21.843261 H          1 MOL1         0.0789
      15    C6      20.211156   21.037843   23.628847 C.3        1 MOL1        -0.1761
      16    H10     21.267378   21.334706   23.592396 H          1 MOL1         0.0832
      17    H11     19.705742   21.815716   24.215971 H          1 MOL1         0.0832
      18    C7      20.093391   19.694796   24.391178 C.3        1 MOL1        -0.1685
      19    H12     20.577752   19.819688   25.369190 H          1 MOL1         0.0832
      20    H13     19.038221   19.481867   24.609707 H          1 MOL1         0.0832
      21    O1      18.271818   20.686520   22.203948 O.3        1 MOL1        -0.5509
      22    H14     18.291398   19.738164   22.441695 H          1 MOL1         0.3779
@<TRIPOS>BOND
    1     1     2    1
    2     1     3    1
    3     1     4    1
    4     4     5    1
    5     4     6    1
    6     4     7    1
    7     7     8    1
    8     7     9    1
    9     7    10    1
   10    10    11    1
   11    10    12    1
   12    10    13    1
   13    13    14    1
   14    13    15    1
   15    15    16    1
   16    15    17    1
   17     1    18    1
   18    15    18    1
   19    18    19    1
   20    18    20    1
   21    13    21    1
   22    21    22    1
@<TRIPOS>SUBSTRUCTURE
       1 MOL1            1 RESIDUE      1      MOL     
@<SCITEGIC>MOL_PROPERTY
VConf Rank
SciTegic.value.IntegerValue
623

@<SCITEGIC>MOL_PROPERTY
Conf_Id
SciTegic.value.IntegerValue
99

@<SCITEGIC>MOL_PROPERTY
Delta U+W
SciTegic.value.DoubleValue
-3.852

@<SCITEGIC>MOL_PROPERTY
U+W
SciTegic.value.DoubleValue
2.572

@<SCITEGIC>MOL_PROPERTY
Grad RMS
SciTegic.value.DoubleValue
0.000000

@<SCITEGIC>MOL_PROPERTY
U
SciTegic.value.DoubleValue
3.922

@<SCITEGIC>MOL_PROPERTY
W
SciTegic.value.DoubleValue
-1.350

@<SCITEGIC>MOL_PROPERTY
W(PB)
SciTegic.value.DoubleValue
-3.345

@<SCITEGIC>MOL_PROPERTY
W(SA)
SciTegic.value.DoubleValue
1.995

@<SCITEGIC>MOL_PROPERTY
Valence
SciTegic.value.DoubleValue
12.571

@<SCITEGIC>MOL_PROPERTY
Coulomb
SciTegic.value.DoubleValue
-10.581

@<SCITEGIC>MOL_PROPERTY
VdW
SciTegic.value.DoubleValue
1.932

@<SCITEGIC>MOL_PROPERTY
VdW6
SciTegic.value.DoubleValue
-10.483

@<SCITEGIC>MOL_PROPERTY
VdW12
SciTegic.value.DoubleValue
12.415

@<SCITEGIC>MOL_PROPERTY
Bond
SciTegic.value.DoubleValue
0.268

@<SCITEGIC>MOL_PROPERTY
Angle
SciTegic.value.DoubleValue
3.728

@<SCITEGIC>MOL_PROPERTY
Pdih
SciTegic.value.DoubleValue
8.575

@<SCITEGIC>MOL_PROPERTY
Idih
SciTegic.value.DoubleValue
0.000

@<SCITEGIC>MOL_PROPERTY
Tether
SciTegic.value.DoubleValue
0.000

@<TRIPOS>MOLECULE
guest-5_confgen4.mol2 : confsearch ligand conformer 624
          22          22           1
SMALL
USER_CHARGES
 
@<TRIPOS>ATOM
       1    C1      19.900813   20.027787   24.276997 C.3        1 MOL1        -0.1685
       2    H1      19.424872   20.614311   25.074970 H          1 MOL1         0.0832
       3    H2      20.628000   19.386277   24.792478 H          1 MOL1         0.0832
       4    C2      20.637310   21.019824   23.329746 C.3        1 MOL1        -0.1685
       5    H3      20.480285   22.035718   23.717811 H          1 MOL1         0.0832
       6    H4      21.722502   20.860456   23.384644 H          1 MOL1         0.0832
       7    C3      20.185039   21.005551   21.847182 C.3        1 MOL1        -0.1685
       8    H5      20.634379   21.869941   21.339590 H          1 MOL1         0.0832
       9    H6      19.103959   21.182594   21.788096 H          1 MOL1         0.0832
      10    C4      20.553362   19.733080   21.034786 C.3        1 MOL1        -0.1761
      11    H7      19.871552   19.664324   20.177377 H          1 MOL1         0.0832
      12    H8      21.551905   19.875839   20.600588 H          1 MOL1         0.0832
      13    C5      20.555025   18.370181   21.770083 C.3        1 MOL1         0.1218
      14    H9      20.611350   17.590345   20.997130 H          1 MOL1         0.0789
      15    C6      19.309431   18.056904   22.635241 C.3        1 MOL1        -0.1761
      16    H10     18.480654   17.789804   21.967014 H          1 MOL1         0.0832
      17    H11     19.525438   17.145250   23.208150 H          1 MOL1         0.0832
      18    C7      18.806269   19.148051   23.620648 C.3        1 MOL1        -0.1685
      19    H12     18.068279   19.787136   23.120140 H          1 MOL1         0.0832
      20    H13     18.241175   18.646040   24.417755 H          1 MOL1         0.0832
      21    O1      21.726046   18.258696   22.563508 O.3        1 MOL1        -0.5509
      22    H14     21.628226   18.967791   23.230252 H          1 MOL1         0.3779
@<TRIPOS>BOND
    1     1     2    1
    2     1     3    1
    3     1     4    1
    4     4     5    1
    5     4     6    1
    6     4     7    1
    7     7     8    1
    8     7     9    1
    9     7    10    1
   10    10    11    1
   11    10    12    1
   12    10    13    1
   13    13    14    1
   14    13    15    1
   15    15    16    1
   16    15    17    1
   17     1    18    1
   18    15    18    1
   19    18    19    1
   20    18    20    1
   21    13    21    1
   22    21    22    1
@<TRIPOS>SUBSTRUCTURE
       1 MOL1            1 RESIDUE      1      MOL     
@<SCITEGIC>MOL_PROPERTY
VConf Rank
SciTegic.value.IntegerValue
624

@<SCITEGIC>MOL_PROPERTY
Conf_Id
SciTegic.value.IntegerValue
98

@<SCITEGIC>MOL_PROPERTY
Delta U+W
SciTegic.value.DoubleValue
0.930

@<SCITEGIC>MOL_PROPERTY
U+W
SciTegic.value.DoubleValue
7.353

@<SCITEGIC>MOL_PROPERTY
Grad RMS
SciTegic.value.DoubleValue
0.000000

@<SCITEGIC>MOL_PROPERTY
U
SciTegic.value.DoubleValue
8.455

@<SCITEGIC>MOL_PROPERTY
W
SciTegic.value.DoubleValue
-1.102

@<SCITEGIC>MOL_PROPERTY
W(PB)
SciTegic.value.DoubleValue
-3.101

@<SCITEGIC>MOL_PROPERTY
W(SA)
SciTegic.value.DoubleValue
2.000

@<SCITEGIC>MOL_PROPERTY
Valence
SciTegic.value.DoubleValue
15.601

@<SCITEGIC>MOL_PROPERTY
Coulomb
SciTegic.value.DoubleValue
-10.573

@<SCITEGIC>MOL_PROPERTY
VdW
SciTegic.value.DoubleValue
3.427

@<SCITEGIC>MOL_PROPERTY
VdW6
SciTegic.value.DoubleValue
-11.360

@<SCITEGIC>MOL_PROPERTY
VdW12
SciTegic.value.DoubleValue
14.787

@<SCITEGIC>MOL_PROPERTY
Bond
SciTegic.value.DoubleValue
0.471

@<SCITEGIC>MOL_PROPERTY
Angle
SciTegic.value.DoubleValue
5.445

@<SCITEGIC>MOL_PROPERTY
Pdih
SciTegic.value.DoubleValue
9.685

@<SCITEGIC>MOL_PROPERTY
Idih
SciTegic.value.DoubleValue
0.000

@<SCITEGIC>MOL_PROPERTY
Tether
SciTegic.value.DoubleValue
0.000

@<TRIPOS>MOLECULE
guest-5_confgen4.mol2 : confsearch ligand conformer 625
          22          22           1
SMALL
USER_CHARGES
 
@<TRIPOS>ATOM
       1    C1      21.398376   19.838721   21.680622 C.3        1 MOL1        -0.1685
       2    H1      20.726776   19.818447   20.812680 H          1 MOL1         0.0832
       3    H2      22.387101   20.085356   21.270371 H          1 MOL1         0.0832
       4    C2      21.468038   18.429574   22.322191 C.3        1 MOL1        -0.1685
       5    H3      21.834702   17.734535   21.554499 H          1 MOL1         0.0832
       6    H4      22.227632   18.423963   23.115670 H          1 MOL1         0.0832
       7    C3      20.134900   17.865903   22.887581 C.3        1 MOL1        -0.1685
       8    H5      20.126690   17.945906   23.982362 H          1 MOL1         0.0832
       9    H6      20.104982   16.787111   22.682774 H          1 MOL1         0.0832
      10    C4      18.849501   18.516974   22.311763 C.3        1 MOL1        -0.1761
      11    H7      18.892972   18.491265   21.215827 H          1 MOL1         0.0832
      12    H8      17.993344   17.881142   22.574627 H          1 MOL1         0.0832
      13    C5      18.557463   19.973469   22.777819 C.3        1 MOL1         0.1218
      14    H9      18.285228   20.564631   21.891544 H          1 MOL1         0.0789
      15    C6      19.718888   20.697796   23.503560 C.3        1 MOL1        -0.1761
      16    H10     19.353781   21.659464   23.886899 H          1 MOL1         0.0832
      17    H11     20.010165   20.127952   24.394079 H          1 MOL1         0.0832
      18    C7      20.972056   20.977381   22.636836 C.3        1 MOL1        -0.1685
      19    H12     20.794454   21.879630   22.035822 H          1 MOL1         0.0832
      20    H13     21.810026   21.220123   23.304334 H          1 MOL1         0.0832
      21    O1      17.448137   19.947612   23.668831 O.3        1 MOL1        -0.5509
      22    H14     17.250040   20.878847   23.900646 H          1 MOL1         0.3779
@<TRIPOS>BOND
    1     1     2    1
    2     1     3    1
    3     1     4    1
    4     4     5    1
    5     4     6    1
    6     4     7    1
    7     7     8    1
    8     7     9    1
    9     7    10    1
   10    10    11    1
   11    10    12    1
   12    10    13    1
   13    13    14    1
   14    13    15    1
   15    15    16    1
   16    15    17    1
   17     1    18    1
   18    15    18    1
   19    18    19    1
   20    18    20    1
   21    13    21    1
   22    21    22    1
@<TRIPOS>SUBSTRUCTURE
       1 MOL1            1 RESIDUE      1      MOL     
@<SCITEGIC>MOL_PROPERTY
VConf Rank
SciTegic.value.IntegerValue
625

@<SCITEGIC>MOL_PROPERTY
Conf_Id
SciTegic.value.IntegerValue
141

@<SCITEGIC>MOL_PROPERTY
Delta U+W
SciTegic.value.DoubleValue
0.000

@<SCITEGIC>MOL_PROPERTY
U+W
SciTegic.value.DoubleValue
6.423

@<SCITEGIC>MOL_PROPERTY
Grad RMS
SciTegic.value.DoubleValue
0.000000

@<SCITEGIC>MOL_PROPERTY
U
SciTegic.value.DoubleValue
8.781

@<SCITEGIC>MOL_PROPERTY
W
SciTegic.value.DoubleValue
-2.358

@<SCITEGIC>MOL_PROPERTY
W(PB)
SciTegic.value.DoubleValue
-4.373

@<SCITEGIC>MOL_PROPERTY
W(SA)
SciTegic.value.DoubleValue
2.015

@<SCITEGIC>MOL_PROPERTY
Valence
SciTegic.value.DoubleValue
13.328

@<SCITEGIC>MOL_PROPERTY
Coulomb
SciTegic.value.DoubleValue
-8.387

@<SCITEGIC>MOL_PROPERTY
VdW
SciTegic.value.DoubleValue
3.840

@<SCITEGIC>MOL_PROPERTY
VdW6
SciTegic.value.DoubleValue
-9.744

@<SCITEGIC>MOL_PROPERTY
VdW12
SciTegic.value.DoubleValue
13.584

@<SCITEGIC>MOL_PROPERTY
Bond
SciTegic.value.DoubleValue
0.436

@<SCITEGIC>MOL_PROPERTY
Angle
SciTegic.value.DoubleValue
3.478

@<SCITEGIC>MOL_PROPERTY
Pdih
SciTegic.value.DoubleValue
9.415

@<SCITEGIC>MOL_PROPERTY
Idih
SciTegic.value.DoubleValue
0.000

@<SCITEGIC>MOL_PROPERTY
Tether
SciTegic.value.DoubleValue
0.000

@<TRIPOS>MOLECULE
guest-5_confgen4.mol2 : confsearch ligand conformer 626
          22          22           1
SMALL
USER_CHARGES
 
@<TRIPOS>ATOM
       1    C1      18.709422   20.144866   21.587487 C.3        1 MOL1        -0.1685
       2    H1      19.478019   20.478386   20.877113 H          1 MOL1         0.0832
       3    H2      17.743134   20.332583   21.099679 H          1 MOL1         0.0832
       4    C2      18.751940   20.987532   22.885084 C.3        1 MOL1        -0.1685
       5    H3      18.422449   22.008824   22.650023 H          1 MOL1         0.0832
       6    H4      18.016089   20.593591   23.599376 H          1 MOL1         0.0832
       7    C3      20.135024   21.072960   23.570732 C.3        1 MOL1        -0.1685
       8    H5      20.018867   21.635737   24.507010 H          1 MOL1         0.0832
       9    H6      20.815723   21.667644   22.946264 H          1 MOL1         0.0832
      10    C4      20.790827   19.707901   23.892782 C.3        1 MOL1        -0.1761
      11    H7      21.633827   19.896309   24.570527 H          1 MOL1         0.0832
      12    H8      20.093633   19.063829   24.444224 H          1 MOL1         0.0832
      13    C5      21.313309   18.984681   22.631199 C.3        1 MOL1         0.1218
      14    H9      21.648643   19.745872   21.912183 H          1 MOL1         0.0789
      15    C6      20.272055   18.081797   21.931280 C.3        1 MOL1        -0.1761
      16    H10     20.632102   17.889399   20.912360 H          1 MOL1         0.0832
      17    H11     20.245097   17.103893   22.430366 H          1 MOL1         0.0832
      18    C7      18.823490   18.625412   21.852610 C.3        1 MOL1        -0.1685
      19    H12     18.300560   18.083462   21.052823 H          1 MOL1         0.0832
      20    H13     18.286247   18.374753   22.777407 H          1 MOL1         0.0832
      21    O1      22.425298   18.175417   22.994226 O.3        1 MOL1        -0.5509
      22    H14     23.103304   18.777662   23.366015 H          1 MOL1         0.3779
@<TRIPOS>BOND
    1     1     2    1
    2     1     3    1
    3     1     4    1
    4     4     5    1
    5     4     6    1
    6     4     7    1
    7     7     8    1
    8     7     9    1
    9     7    10    1
   10    10    11    1
   11    10    12    1
   12    10    13    1
   13    13    14    1
   14    13    15    1
   15    15    16    1
   16    15    17    1
   17     1    18    1
   18    15    18    1
   19    18    19    1
   20    18    20    1
   21    13    21    1
   22    21    22    1
@<TRIPOS>SUBSTRUCTURE
       1 MOL1            1 RESIDUE      1      MOL     
@<SCITEGIC>MOL_PROPERTY
VConf Rank
SciTegic.value.IntegerValue
626

@<SCITEGIC>MOL_PROPERTY
Conf_Id
SciTegic.value.IntegerValue
144

@<SCITEGIC>MOL_PROPERTY
Delta U+W
SciTegic.value.DoubleValue
-3.291

@<SCITEGIC>MOL_PROPERTY
U+W
SciTegic.value.DoubleValue
3.132

@<SCITEGIC>MOL_PROPERTY
Grad RMS
SciTegic.value.DoubleValue
0.000000

@<SCITEGIC>MOL_PROPERTY
U
SciTegic.value.DoubleValue
5.411

@<SCITEGIC>MOL_PROPERTY
W
SciTegic.value.DoubleValue
-2.279

@<SCITEGIC>MOL_PROPERTY
W(PB)
SciTegic.value.DoubleValue
-4.300

@<SCITEGIC>MOL_PROPERTY
W(SA)
SciTegic.value.DoubleValue
2.021

@<SCITEGIC>MOL_PROPERTY
Valence
SciTegic.value.DoubleValue
11.909

@<SCITEGIC>MOL_PROPERTY
Coulomb
SciTegic.value.DoubleValue
-8.733

@<SCITEGIC>MOL_PROPERTY
VdW
SciTegic.value.DoubleValue
2.236

@<SCITEGIC>MOL_PROPERTY
VdW6
SciTegic.value.DoubleValue
-8.936

@<SCITEGIC>MOL_PROPERTY
VdW12
SciTegic.value.DoubleValue
11.172

@<SCITEGIC>MOL_PROPERTY
Bond
SciTegic.value.DoubleValue
0.223

@<SCITEGIC>MOL_PROPERTY
Angle
SciTegic.value.DoubleValue
2.457

@<SCITEGIC>MOL_PROPERTY
Pdih
SciTegic.value.DoubleValue
9.228

@<SCITEGIC>MOL_PROPERTY
Idih
SciTegic.value.DoubleValue
0.000

@<SCITEGIC>MOL_PROPERTY
Tether
SciTegic.value.DoubleValue
0.000

@<TRIPOS>MOLECULE
guest-5_confgen4.mol2 : confsearch ligand conformer 627
          22          22           1
SMALL
USER_CHARGES
 
@<TRIPOS>ATOM
       1    C1      20.808925   18.161859   23.212380 C.3        1 MOL1        -0.1685
       2    H1      21.582974   17.473680   23.578642 H          1 MOL1         0.0832
       3    H2      19.888370   17.568070   23.130677 H          1 MOL1         0.0832
       4    C2      21.251690   18.685690   21.826150 C.3        1 MOL1        -0.1685
       5    H3      21.954400   19.519728   21.957884 H          1 MOL1         0.0832
       6    H4      21.823512   17.899050   21.315057 H          1 MOL1         0.0832
       7    C3      20.098444   19.121161   20.890034 C.3        1 MOL1        -0.1685
       8    H5      19.699840   18.234794   20.377801 H          1 MOL1         0.0832
       9    H6      20.520536   19.757372   20.100040 H          1 MOL1         0.0832
      10    C4      18.915507   19.864748   21.557776 C.3        1 MOL1        -0.1761
      11    H7      18.361530   20.391264   20.768879 H          1 MOL1         0.0832
      12    H8      18.215014   19.128479   21.972641 H          1 MOL1         0.0832
      13    C5      19.316746   20.867322   22.662967 C.3        1 MOL1         0.1218
      14    H9      20.278420   21.333629   22.405656 H          1 MOL1         0.0789
      15    C6      19.417882   20.204764   24.055722 C.3        1 MOL1        -0.1761
      16    H10     19.451762   20.993793   24.818884 H          1 MOL1         0.0832
      17    H11     18.504497   19.629290   24.254830 H          1 MOL1         0.0832
      18    C7      20.648521   19.289602   24.259977 C.3        1 MOL1        -0.1685
      19    H12     21.559559   19.903294   24.277755 H          1 MOL1         0.0832
      20    H13     20.575432   18.833810   25.256822 H          1 MOL1         0.0832
      21    O1      18.320209   21.878428   22.732189 O.3        1 MOL1        -0.5509
      22    H14     17.482303   21.425800   22.960665 H          1 MOL1         0.3779
@<TRIPOS>BOND
    1     1     2    1
    2     1     3    1
    3     1     4    1
    4     4     5    1
    5     4     6    1
    6     4     7    1
    7     7     8    1
    8     7     9    1
    9     7    10    1
   10    10    11    1
   11    10    12    1
   12    10    13    1
   13    13    14    1
   14    13    15    1
   15    15    16    1
   16    15    17    1
   17     1    18    1
   18    15    18    1
   19    18    19    1
   20    18    20    1
   21    13    21    1
   22    21    22    1
@<TRIPOS>SUBSTRUCTURE
       1 MOL1            1 RESIDUE      1      MOL     
@<SCITEGIC>MOL_PROPERTY
VConf Rank
SciTegic.value.IntegerValue
627

@<SCITEGIC>MOL_PROPERTY
Conf_Id
SciTegic.value.IntegerValue
76

@<SCITEGIC>MOL_PROPERTY
Delta U+W
SciTegic.value.DoubleValue
-3.175

@<SCITEGIC>MOL_PROPERTY
U+W
SciTegic.value.DoubleValue
3.248

@<SCITEGIC>MOL_PROPERTY
Grad RMS
SciTegic.value.DoubleValue
0.000000

@<SCITEGIC>MOL_PROPERTY
U
SciTegic.value.DoubleValue
5.336

@<SCITEGIC>MOL_PROPERTY
W
SciTegic.value.DoubleValue
-2.088

@<SCITEGIC>MOL_PROPERTY
W(PB)
SciTegic.value.DoubleValue
-4.098

@<SCITEGIC>MOL_PROPERTY
W(SA)
SciTegic.value.DoubleValue
2.010

@<SCITEGIC>MOL_PROPERTY
Valence
SciTegic.value.DoubleValue
12.390

@<SCITEGIC>MOL_PROPERTY
Coulomb
SciTegic.value.DoubleValue
-9.270

@<SCITEGIC>MOL_PROPERTY
VdW
SciTegic.value.DoubleValue
2.216

@<SCITEGIC>MOL_PROPERTY
VdW6
SciTegic.value.DoubleValue
-8.967

@<SCITEGIC>MOL_PROPERTY
VdW12
SciTegic.value.DoubleValue
11.183

@<SCITEGIC>MOL_PROPERTY
Bond
SciTegic.value.DoubleValue
0.218

@<SCITEGIC>MOL_PROPERTY
Angle
SciTegic.value.DoubleValue
2.426

@<SCITEGIC>MOL_PROPERTY
Pdih
SciTegic.value.DoubleValue
9.745

@<SCITEGIC>MOL_PROPERTY
Idih
SciTegic.value.DoubleValue
0.000

@<SCITEGIC>MOL_PROPERTY
Tether
SciTegic.value.DoubleValue
0.000

@<TRIPOS>MOLECULE
guest-5_confgen4.mol2 : confsearch ligand conformer 628
          22          22           1
SMALL
USER_CHARGES
 
@<TRIPOS>ATOM
       1    C1      20.808166   18.014282   21.920546 C.3        1 MOL1        -0.1685
       2    H1      21.270518   17.167416   22.445741 H          1 MOL1         0.0832
       3    H2      20.793608   17.734289   20.858375 H          1 MOL1         0.0832
       4    C2      21.720033   19.251531   22.100517 C.3        1 MOL1        -0.1685
       5    H3      22.161290   19.238539   23.106301 H          1 MOL1         0.0832
       6    H4      22.566506   19.152980   21.407297 H          1 MOL1         0.0832
       7    C3      21.029377   20.614012   21.859305 C.3        1 MOL1        -0.1685
       8    H5      20.307294   20.548638   21.033983 H          1 MOL1         0.0832
       9    H6      21.795362   21.332450   21.537736 H          1 MOL1         0.0832
      10    C4      20.357445   21.180465   23.135909 C.3        1 MOL1        -0.1761
      11    H7      21.081122   21.166712   23.960903 H          1 MOL1         0.0832
      12    H8      20.122601   22.239665   22.967514 H          1 MOL1         0.0832
      13    C5      19.062950   20.473217   23.597624 C.3        1 MOL1         0.1218
      14    H9      18.823595   20.869593   24.594967 H          1 MOL1         0.0789
      15    C6      19.165201   18.933076   23.731778 C.3        1 MOL1        -0.1761
      16    H10     19.975512   18.673002   24.425057 H          1 MOL1         0.0832
      17    H11     18.242245   18.580431   24.209880 H          1 MOL1         0.0832
      18    C7      19.343480   18.165584   22.395968 C.3        1 MOL1        -0.1685
      19    H12     18.919647   17.158446   22.507601 H          1 MOL1         0.0832
      20    H13     18.751403   18.643907   21.604708 H          1 MOL1         0.0832
      21    O1      17.999026   20.818352   22.716165 O.3        1 MOL1        -0.5509
      22    H14     17.215842   20.311222   23.012351 H          1 MOL1         0.3779
@<TRIPOS>BOND
    1     1     2    1
    2     1     3    1
    3     1     4    1
    4     4     5    1
    5     4     6    1
    6     4     7    1
    7     7     8    1
    8     7     9    1
    9     7    10    1
   10    10    11    1
   11    10    12    1
   12    10    13    1
   13    13    14    1
   14    13    15    1
   15    15    16    1
   16    15    17    1
   17     1    18    1
   18    15    18    1
   19    18    19    1
   20    18    20    1
   21    13    21    1
   22    21    22    1
@<TRIPOS>SUBSTRUCTURE
       1 MOL1            1 RESIDUE      1      MOL     
@<SCITEGIC>MOL_PROPERTY
VConf Rank
SciTegic.value.IntegerValue
628

@<SCITEGIC>MOL_PROPERTY
Conf_Id
SciTegic.value.IntegerValue
95

@<SCITEGIC>MOL_PROPERTY
Delta U+W
SciTegic.value.DoubleValue
-2.289

@<SCITEGIC>MOL_PROPERTY
U+W
SciTegic.value.DoubleValue
4.134

@<SCITEGIC>MOL_PROPERTY
Grad RMS
SciTegic.value.DoubleValue
0.000000

@<SCITEGIC>MOL_PROPERTY
U
SciTegic.value.DoubleValue
6.373

@<SCITEGIC>MOL_PROPERTY
W
SciTegic.value.DoubleValue
-2.240

@<SCITEGIC>MOL_PROPERTY
W(PB)
SciTegic.value.DoubleValue
-4.254

@<SCITEGIC>MOL_PROPERTY
W(SA)
SciTegic.value.DoubleValue
2.015

@<SCITEGIC>MOL_PROPERTY
Valence
SciTegic.value.DoubleValue
12.093

@<SCITEGIC>MOL_PROPERTY
Coulomb
SciTegic.value.DoubleValue
-8.058

@<SCITEGIC>MOL_PROPERTY
VdW
SciTegic.value.DoubleValue
2.339

@<SCITEGIC>MOL_PROPERTY
VdW6
SciTegic.value.DoubleValue
-9.683

@<SCITEGIC>MOL_PROPERTY
VdW12
SciTegic.value.DoubleValue
12.022

@<SCITEGIC>MOL_PROPERTY
Bond
SciTegic.value.DoubleValue
0.268

@<SCITEGIC>MOL_PROPERTY
Angle
SciTegic.value.DoubleValue
3.005

@<SCITEGIC>MOL_PROPERTY
Pdih
SciTegic.value.DoubleValue
8.820

@<SCITEGIC>MOL_PROPERTY
Idih
SciTegic.value.DoubleValue
0.000

@<SCITEGIC>MOL_PROPERTY
Tether
SciTegic.value.DoubleValue
0.000

@<TRIPOS>MOLECULE
guest-5_confgen4.mol2 : confsearch ligand conformer 629
          22          22           1
SMALL
USER_CHARGES
 
@<TRIPOS>ATOM
       1    C1      20.208960   21.513434   22.978648 C.3        1 MOL1        -0.1685
       2    H1      19.577260   22.164255   23.598439 H          1 MOL1         0.0832
       3    H2      20.993491   22.163380   22.567710 H          1 MOL1         0.0832
       4    C2      19.347637   20.969896   21.813737 C.3        1 MOL1        -0.1685
       5    H3      18.324674   20.786909   22.169465 H          1 MOL1         0.0832
       6    H4      19.258195   21.763168   21.059073 H          1 MOL1         0.0832
       7    C3      19.893491   19.691475   21.136096 C.3        1 MOL1        -0.1685
       8    H5      20.989848   19.717968   21.071904 H          1 MOL1         0.0832
       9    H6      19.527768   19.672623   20.100569 H          1 MOL1         0.0832
      10    C4      19.410022   18.393732   21.831389 C.3        1 MOL1        -0.1761
      11    H7      18.320426   18.438193   21.956692 H          1 MOL1         0.0832
      12    H8      19.591050   17.546233   21.157626 H          1 MOL1         0.0832
      13    C5      20.052570   18.073442   23.200433 C.3        1 MOL1         0.1218
      14    H9      19.484097   17.235897   23.629919 H          1 MOL1         0.0789
      15    C6      20.010464   19.227726   24.232997 C.3        1 MOL1        -0.1761
      16    H10     18.972369   19.540826   24.402749 H          1 MOL1         0.0832
      17    H11     20.360851   18.819725   25.189863 H          1 MOL1         0.0832
      18    C7      20.888136   20.457735   23.883409 C.3        1 MOL1        -0.1685
      19    H12     21.186226   20.954693   24.816358 H          1 MOL1         0.0832
      20    H13     21.826403   20.126806   23.418910 H          1 MOL1         0.0832
      21    O1      21.395743   17.642637   23.002474 O.3        1 MOL1        -0.5509
      22    H14     21.366656   16.929061   22.333034 H          1 MOL1         0.3779
@<TRIPOS>BOND
    1     1     2    1
    2     1     3    1
    3     1     4    1
    4     4     5    1
    5     4     6    1
    6     4     7    1
    7     7     8    1
    8     7     9    1
    9     7    10    1
   10    10    11    1
   11    10    12    1
   12    10    13    1
   13    13    14    1
   14    13    15    1
   15    15    16    1
   16    15    17    1
   17     1    18    1
   18    15    18    1
   19    18    19    1
   20    18    20    1
   21    13    21    1
   22    21    22    1
@<TRIPOS>SUBSTRUCTURE
       1 MOL1            1 RESIDUE      1      MOL     
@<SCITEGIC>MOL_PROPERTY
VConf Rank
SciTegic.value.IntegerValue
629

@<SCITEGIC>MOL_PROPERTY
Conf_Id
SciTegic.value.IntegerValue
41

@<SCITEGIC>MOL_PROPERTY
Delta U+W
SciTegic.value.DoubleValue
-2.114

@<SCITEGIC>MOL_PROPERTY
U+W
SciTegic.value.DoubleValue
4.310

@<SCITEGIC>MOL_PROPERTY
Grad RMS
SciTegic.value.DoubleValue
0.000000

@<SCITEGIC>MOL_PROPERTY
U
SciTegic.value.DoubleValue
6.598

@<SCITEGIC>MOL_PROPERTY
W
SciTegic.value.DoubleValue
-2.289

@<SCITEGIC>MOL_PROPERTY
W(PB)
SciTegic.value.DoubleValue
-4.294

@<SCITEGIC>MOL_PROPERTY
W(SA)
SciTegic.value.DoubleValue
2.005

@<SCITEGIC>MOL_PROPERTY
Valence
SciTegic.value.DoubleValue
12.082

@<SCITEGIC>MOL_PROPERTY
Coulomb
SciTegic.value.DoubleValue
-7.801

@<SCITEGIC>MOL_PROPERTY
VdW
SciTegic.value.DoubleValue
2.317

@<SCITEGIC>MOL_PROPERTY
VdW6
SciTegic.value.DoubleValue
-9.658

@<SCITEGIC>MOL_PROPERTY
VdW12
SciTegic.value.DoubleValue
11.975

@<SCITEGIC>MOL_PROPERTY
Bond
SciTegic.value.DoubleValue
0.267

@<SCITEGIC>MOL_PROPERTY
Angle
SciTegic.value.DoubleValue
3.051

@<SCITEGIC>MOL_PROPERTY
Pdih
SciTegic.value.DoubleValue
8.764

@<SCITEGIC>MOL_PROPERTY
Idih
SciTegic.value.DoubleValue
0.000

@<SCITEGIC>MOL_PROPERTY
Tether
SciTegic.value.DoubleValue
0.000

@<TRIPOS>MOLECULE
guest-5_confgen4.mol2 : confsearch ligand conformer 630
          22          22           1
SMALL
USER_CHARGES
 
@<TRIPOS>ATOM
       1    C1      18.888385   20.119853   21.712867 C.3        1 MOL1        -0.1685
       2    H1      17.967250   20.295685   21.140904 H          1 MOL1         0.0832
       3    H2      19.426391   21.077635   21.732340 H          1 MOL1         0.0832
       4    C2      19.711511   19.045778   20.967071 C.3        1 MOL1        -0.1685
       5    H3      19.185783   18.082400   21.012839 H          1 MOL1         0.0832
       6    H4      19.756047   19.314235   19.902878 H          1 MOL1         0.0832
       7    C3      21.156782   18.869050   21.482027 C.3        1 MOL1        -0.1685
       8    H5      21.742631   19.766187   21.241578 H          1 MOL1         0.0832
       9    H6      21.621485   18.053140   20.912406 H          1 MOL1         0.0832
      10    C4      21.282927   18.542080   22.994761 C.3        1 MOL1        -0.1761
      11    H7      20.637254   17.692759   23.251700 H          1 MOL1         0.0832
      12    H8      22.309653   18.199115   23.175844 H          1 MOL1         0.0832
      13    C5      21.016384   19.719060   23.968263 C.3        1 MOL1         0.1218
      14    H9      21.446228   19.429543   24.938155 H          1 MOL1         0.0789
      15    C6      19.525428   20.049149   24.238879 C.3        1 MOL1        -0.1761
      16    H10     19.225436   19.530992   25.158977 H          1 MOL1         0.0832
      17    H11     19.431609   21.118986   24.467170 H          1 MOL1         0.0832
      18    C7      18.494767   19.684602   23.141727 C.3        1 MOL1        -0.1685
      19    H12     18.296787   18.604378   23.160035 H          1 MOL1         0.0832
      20    H13     17.541458   20.162978   23.404473 H          1 MOL1         0.0832
      21    O1      21.695358   20.892542   23.529112 O.3        1 MOL1        -0.5509
      22    H14     21.524334   21.585485   24.198805 H          1 MOL1         0.3779
@<TRIPOS>BOND
    1     1     2    1
    2     1     3    1
    3     1     4    1
    4     4     5    1
    5     4     6    1
    6     4     7    1
    7     7     8    1
    8     7     9    1
    9     7    10    1
   10    10    11    1
   11    10    12    1
   12    10    13    1
   13    13    14    1
   14    13    15    1
   15    15    16    1
   16    15    17    1
   17     1    18    1
   18    15    18    1
   19    18    19    1
   20    18    20    1
   21    13    21    1
   22    21    22    1
@<TRIPOS>SUBSTRUCTURE
       1 MOL1            1 RESIDUE      1      MOL     
@<SCITEGIC>MOL_PROPERTY
VConf Rank
SciTegic.value.IntegerValue
630

@<SCITEGIC>MOL_PROPERTY
Conf_Id
SciTegic.value.IntegerValue
104

@<SCITEGIC>MOL_PROPERTY
Delta U+W
SciTegic.value.DoubleValue
-1.172

@<SCITEGIC>MOL_PROPERTY
U+W
SciTegic.value.DoubleValue
5.252

@<SCITEGIC>MOL_PROPERTY
Grad RMS
SciTegic.value.DoubleValue
0.000000

@<SCITEGIC>MOL_PROPERTY
U
SciTegic.value.DoubleValue
7.482

@<SCITEGIC>MOL_PROPERTY
W
SciTegic.value.DoubleValue
-2.230

@<SCITEGIC>MOL_PROPERTY
W(PB)
SciTegic.value.DoubleValue
-4.220

@<SCITEGIC>MOL_PROPERTY
W(SA)
SciTegic.value.DoubleValue
1.990

@<SCITEGIC>MOL_PROPERTY
Valence
SciTegic.value.DoubleValue
12.309

@<SCITEGIC>MOL_PROPERTY
Coulomb
SciTegic.value.DoubleValue
-7.084

@<SCITEGIC>MOL_PROPERTY
VdW
SciTegic.value.DoubleValue
2.258

@<SCITEGIC>MOL_PROPERTY
VdW6
SciTegic.value.DoubleValue
-9.770

@<SCITEGIC>MOL_PROPERTY
VdW12
SciTegic.value.DoubleValue
12.028

@<SCITEGIC>MOL_PROPERTY
Bond
SciTegic.value.DoubleValue
0.284

@<SCITEGIC>MOL_PROPERTY
Angle
SciTegic.value.DoubleValue
3.491

@<SCITEGIC>MOL_PROPERTY
Pdih
SciTegic.value.DoubleValue
8.535

@<SCITEGIC>MOL_PROPERTY
Idih
SciTegic.value.DoubleValue
0.000

@<SCITEGIC>MOL_PROPERTY
Tether
SciTegic.value.DoubleValue
0.000

@<TRIPOS>MOLECULE
guest-5_confgen4.mol2 : confsearch ligand conformer 631
          22          22           1
SMALL
USER_CHARGES
 
@<TRIPOS>ATOM
       1    C1      19.713948   21.187787   22.820448 C.3        1 MOL1        -0.1685
       2    H1      20.713169   21.435127   23.203676 H          1 MOL1         0.0832
       3    H2      19.150324   22.130784   22.815416 H          1 MOL1         0.0832
       4    C2      18.986224   20.207138   23.768198 C.3        1 MOL1        -0.1685
       5    H3      18.579969   20.775797   24.616039 H          1 MOL1         0.0832
       6    H4      18.107354   19.792437   23.257368 H          1 MOL1         0.0832
       7    C3      19.854719   19.059389   24.342708 C.3        1 MOL1        -0.1685
       8    H5      19.194948   18.219122   24.599552 H          1 MOL1         0.0832
       9    H6      20.285181   19.393553   25.296629 H          1 MOL1         0.0832
      10    C4      21.021483   18.539529   23.459753 C.3        1 MOL1        -0.1761
      11    H7      21.867303   19.234931   23.536958 H          1 MOL1         0.0832
      12    H8      21.382242   17.598439   23.894728 H          1 MOL1         0.0832
      13    C5      20.717147   18.292095   21.964381 C.3        1 MOL1         0.1218
      14    H9      21.470408   17.583943   21.590216 H          1 MOL1         0.0789
      15    C6      20.841979   19.571607   21.106748 C.3        1 MOL1        -0.1761
      16    H10     21.845166   19.993922   21.249321 H          1 MOL1         0.0832
      17    H11     20.791335   19.280975   20.049292 H          1 MOL1         0.0832
      18    C7      19.790227   20.679752   21.360962 C.3        1 MOL1        -0.1685
      19    H12     20.035386   21.531327   20.711787 H          1 MOL1         0.0832
      20    H13     18.799805   20.335261   21.034054 H          1 MOL1         0.0832
      21    O1      19.427773   17.720645   21.805859 O.3        1 MOL1        -0.5509
      22    H14     18.827621   18.363960   22.232767 H          1 MOL1         0.3779
@<TRIPOS>BOND
    1     1     2    1
    2     1     3    1
    3     1     4    1
    4     4     5    1
    5     4     6    1
    6     4     7    1
    7     7     8    1
    8     7     9    1
    9     7    10    1
   10    10    11    1
   11    10    12    1
   12    10    13    1
   13    13    14    1
   14    13    15    1
   15    15    16    1
   16    15    17    1
   17     1    18    1
   18    15    18    1
   19    18    19    1
   20    18    20    1
   21    13    21    1
   22    21    22    1
@<TRIPOS>SUBSTRUCTURE
       1 MOL1            1 RESIDUE      1      MOL     
@<SCITEGIC>MOL_PROPERTY
VConf Rank
SciTegic.value.IntegerValue
631

@<SCITEGIC>MOL_PROPERTY
Conf_Id
SciTegic.value.IntegerValue
99

@<SCITEGIC>MOL_PROPERTY
Delta U+W
SciTegic.value.DoubleValue
-3.852

@<SCITEGIC>MOL_PROPERTY
U+W
SciTegic.value.DoubleValue
2.572

@<SCITEGIC>MOL_PROPERTY
Grad RMS
SciTegic.value.DoubleValue
0.000000

@<SCITEGIC>MOL_PROPERTY
U
SciTegic.value.DoubleValue
3.922

@<SCITEGIC>MOL_PROPERTY
W
SciTegic.value.DoubleValue
-1.350

@<SCITEGIC>MOL_PROPERTY
W(PB)
SciTegic.value.DoubleValue
-3.345

@<SCITEGIC>MOL_PROPERTY
W(SA)
SciTegic.value.DoubleValue
1.995

@<SCITEGIC>MOL_PROPERTY
Valence
SciTegic.value.DoubleValue
12.571

@<SCITEGIC>MOL_PROPERTY
Coulomb
SciTegic.value.DoubleValue
-10.581

@<SCITEGIC>MOL_PROPERTY
VdW
SciTegic.value.DoubleValue
1.932

@<SCITEGIC>MOL_PROPERTY
VdW6
SciTegic.value.DoubleValue
-10.483

@<SCITEGIC>MOL_PROPERTY
VdW12
SciTegic.value.DoubleValue
12.415

@<SCITEGIC>MOL_PROPERTY
Bond
SciTegic.value.DoubleValue
0.268

@<SCITEGIC>MOL_PROPERTY
Angle
SciTegic.value.DoubleValue
3.728

@<SCITEGIC>MOL_PROPERTY
Pdih
SciTegic.value.DoubleValue
8.575

@<SCITEGIC>MOL_PROPERTY
Idih
SciTegic.value.DoubleValue
0.000

@<SCITEGIC>MOL_PROPERTY
Tether
SciTegic.value.DoubleValue
0.000

@<TRIPOS>MOLECULE
guest-5_confgen4.mol2 : confsearch ligand conformer 632
          22          22           1
SMALL
USER_CHARGES
 
@<TRIPOS>ATOM
       1    C1      20.329621   20.343709   24.143466 C.3        1 MOL1        -0.1685
       2    H1      20.950122   20.567481   25.022212 H          1 MOL1         0.0832
       3    H2      19.405301   20.916711   24.296298 H          1 MOL1         0.0832
       4    C2      20.022292   18.817497   24.152189 C.3        1 MOL1        -0.1685
       5    H3      20.509636   18.380706   25.034799 H          1 MOL1         0.0832
       6    H4      18.948560   18.648594   24.309111 H          1 MOL1         0.0832
       7    C3      20.496478   18.022274   22.909000 C.3        1 MOL1        -0.1685
       8    H5      20.396868   16.949839   23.125070 H          1 MOL1         0.0832
       9    H6      21.572693   18.174653   22.760300 H          1 MOL1         0.0832
      10    C4      19.737625   18.312659   21.584368 C.3        1 MOL1        -0.1761
      11    H7      20.384171   18.019237   20.747336 H          1 MOL1         0.0832
      12    H8      18.868959   17.643117   21.528423 H          1 MOL1         0.0832
      13    C5      19.232266   19.754422   21.331203 C.3        1 MOL1         0.1218
      14    H9      18.936144   19.807982   20.273746 H          1 MOL1         0.0789
      15    C6      20.256451   20.891223   21.569685 C.3        1 MOL1        -0.1761
      16    H10     20.964184   20.902730   20.730803 H          1 MOL1         0.0832
      17    H11     19.714174   21.843965   21.504750 H          1 MOL1         0.0832
      18    C7      21.071690   20.879783   22.892581 C.3        1 MOL1        -0.1685
      19    H12     22.004714   20.321156   22.747771 H          1 MOL1         0.0832
      20    H13     21.395392   21.909496   23.096623 H          1 MOL1         0.0832
      21    O1      18.067140   19.993276   22.104942 O.3        1 MOL1        -0.5509
      22    H14     18.381390   19.935391   23.029512 H          1 MOL1         0.3779
@<TRIPOS>BOND
    1     1     2    1
    2     1     3    1
    3     1     4    1
    4     4     5    1
    5     4     6    1
    6     4     7    1
    7     7     8    1
    8     7     9    1
    9     7    10    1
   10    10    11    1
   11    10    12    1
   12    10    13    1
   13    13    14    1
   14    13    15    1
   15    15    16    1
   16    15    17    1
   17     1    18    1
   18    15    18    1
   19    18    19    1
   20    18    20    1
   21    13    21    1
   22    21    22    1
@<TRIPOS>SUBSTRUCTURE
       1 MOL1            1 RESIDUE      1      MOL     
@<SCITEGIC>MOL_PROPERTY
VConf Rank
SciTegic.value.IntegerValue
632

@<SCITEGIC>MOL_PROPERTY
Conf_Id
SciTegic.value.IntegerValue
98

@<SCITEGIC>MOL_PROPERTY
Delta U+W
SciTegic.value.DoubleValue
0.930

@<SCITEGIC>MOL_PROPERTY
U+W
SciTegic.value.DoubleValue
7.353

@<SCITEGIC>MOL_PROPERTY
Grad RMS
SciTegic.value.DoubleValue
0.000000

@<SCITEGIC>MOL_PROPERTY
U
SciTegic.value.DoubleValue
8.455

@<SCITEGIC>MOL_PROPERTY
W
SciTegic.value.DoubleValue
-1.102

@<SCITEGIC>MOL_PROPERTY
W(PB)
SciTegic.value.DoubleValue
-3.101

@<SCITEGIC>MOL_PROPERTY
W(SA)
SciTegic.value.DoubleValue
2.000

@<SCITEGIC>MOL_PROPERTY
Valence
SciTegic.value.DoubleValue
15.601

@<SCITEGIC>MOL_PROPERTY
Coulomb
SciTegic.value.DoubleValue
-10.573

@<SCITEGIC>MOL_PROPERTY
VdW
SciTegic.value.DoubleValue
3.427

@<SCITEGIC>MOL_PROPERTY
VdW6
SciTegic.value.DoubleValue
-11.360

@<SCITEGIC>MOL_PROPERTY
VdW12
SciTegic.value.DoubleValue
14.787

@<SCITEGIC>MOL_PROPERTY
Bond
SciTegic.value.DoubleValue
0.471

@<SCITEGIC>MOL_PROPERTY
Angle
SciTegic.value.DoubleValue
5.445

@<SCITEGIC>MOL_PROPERTY
Pdih
SciTegic.value.DoubleValue
9.685

@<SCITEGIC>MOL_PROPERTY
Idih
SciTegic.value.DoubleValue
0.000

@<SCITEGIC>MOL_PROPERTY
Tether
SciTegic.value.DoubleValue
0.000

@<TRIPOS>MOLECULE
guest-5_confgen4.mol2 : confsearch ligand conformer 633
          22          22           1
SMALL
USER_CHARGES
 
@<TRIPOS>ATOM
       1    C1      19.089038   19.684578   24.094805 C.3        1 MOL1        -0.1685
       2    H1      18.704952   20.628470   23.686973 H          1 MOL1         0.0832
       3    H2      18.557974   19.548207   25.046691 H          1 MOL1         0.0832
       4    C2      20.604472   19.819697   24.390371 C.3        1 MOL1        -0.1685
       5    H3      20.729175   20.641005   25.109243 H          1 MOL1         0.0832
       6    H4      20.960579   18.917109   24.905295 H          1 MOL1         0.0832
       7    C3      21.519818   20.104521   23.167398 C.3        1 MOL1        -0.1685
       8    H5      22.047936   19.188886   22.871225 H          1 MOL1         0.0832
       9    H6      22.311061   20.796805   23.485693 H          1 MOL1         0.0832
      10    C4      20.798491   20.707786   21.933110 C.3        1 MOL1        -0.1761
      11    H7      20.220820   21.585915   22.247453 H          1 MOL1         0.0832
      12    H8      21.560217   21.102549   21.247308 H          1 MOL1         0.0832
      13    C5      19.867653   19.737735   21.147991 C.3        1 MOL1         0.1218
      14    H9      18.922385   20.262731   20.948206 H          1 MOL1         0.0789
      15    C6      19.536738   18.398302   21.852741 C.3        1 MOL1        -0.1761
      16    H10     18.981098   17.757654   21.155682 H          1 MOL1         0.0832
      17    H11     20.464557   17.852974   22.063351 H          1 MOL1         0.0832
      18    C7      18.703036   18.520059   23.152712 C.3        1 MOL1        -0.1685
      19    H12     17.643369   18.633295   22.886068 H          1 MOL1         0.0832
      20    H13     18.775619   17.572130   23.703014 H          1 MOL1         0.0832
      21    O1      20.488062   19.424207   19.906230 O.3        1 MOL1        -0.5509
      22    H14     19.858203   18.861188   19.409778 H          1 MOL1         0.3779
@<TRIPOS>BOND
    1     1     2    1
    2     1     3    1
    3     1     4    1
    4     4     5    1
    5     4     6    1
    6     4     7    1
    7     7     8    1
    8     7     9    1
    9     7    10    1
   10    10    11    1
   11    10    12    1
   12    10    13    1
   13    13    14    1
   14    13    15    1
   15    15    16    1
   16    15    17    1
   17     1    18    1
   18    15    18    1
   19    18    19    1
   20    18    20    1
   21    13    21    1
   22    21    22    1
@<TRIPOS>SUBSTRUCTURE
       1 MOL1            1 RESIDUE      1      MOL     
@<SCITEGIC>MOL_PROPERTY
VConf Rank
SciTegic.value.IntegerValue
633

@<SCITEGIC>MOL_PROPERTY
Conf_Id
SciTegic.value.IntegerValue
141

@<SCITEGIC>MOL_PROPERTY
Delta U+W
SciTegic.value.DoubleValue
0.000

@<SCITEGIC>MOL_PROPERTY
U+W
SciTegic.value.DoubleValue
6.423

@<SCITEGIC>MOL_PROPERTY
Grad RMS
SciTegic.value.DoubleValue
0.000000

@<SCITEGIC>MOL_PROPERTY
U
SciTegic.value.DoubleValue
8.781

@<SCITEGIC>MOL_PROPERTY
W
SciTegic.value.DoubleValue
-2.358

@<SCITEGIC>MOL_PROPERTY
W(PB)
SciTegic.value.DoubleValue
-4.373

@<SCITEGIC>MOL_PROPERTY
W(SA)
SciTegic.value.DoubleValue
2.015

@<SCITEGIC>MOL_PROPERTY
Valence
SciTegic.value.DoubleValue
13.328

@<SCITEGIC>MOL_PROPERTY
Coulomb
SciTegic.value.DoubleValue
-8.387

@<SCITEGIC>MOL_PROPERTY
VdW
SciTegic.value.DoubleValue
3.840

@<SCITEGIC>MOL_PROPERTY
VdW6
SciTegic.value.DoubleValue
-9.744

@<SCITEGIC>MOL_PROPERTY
VdW12
SciTegic.value.DoubleValue
13.584

@<SCITEGIC>MOL_PROPERTY
Bond
SciTegic.value.DoubleValue
0.436

@<SCITEGIC>MOL_PROPERTY
Angle
SciTegic.value.DoubleValue
3.478

@<SCITEGIC>MOL_PROPERTY
Pdih
SciTegic.value.DoubleValue
9.415

@<SCITEGIC>MOL_PROPERTY
Idih
SciTegic.value.DoubleValue
0.000

@<SCITEGIC>MOL_PROPERTY
Tether
SciTegic.value.DoubleValue
0.000

@<TRIPOS>MOLECULE
guest-5_confgen4.mol2 : confsearch ligand conformer 634
          22          22           1
SMALL
USER_CHARGES
 
@<TRIPOS>ATOM
       1    C1      18.506323   18.677859   22.720146 C.3        1 MOL1        -0.1685
       2    H1      17.991679   19.563464   23.116950 H          1 MOL1         0.0832
       3    H2      17.734663   17.904456   22.604841 H          1 MOL1         0.0832
       4    C2      19.554595   18.148647   23.728469 C.3        1 MOL1        -0.1685
       5    H3      19.026027   17.738320   24.599734 H          1 MOL1         0.0832
       6    H4      20.094958   17.302871   23.281760 H          1 MOL1         0.0832
       7    C3      20.572926   19.197254   24.232212 C.3        1 MOL1        -0.1685
       8    H5      21.296854   18.686891   24.882046 H          1 MOL1         0.0832
       9    H6      20.058598   19.927274   24.872131 H          1 MOL1         0.0832
      10    C4      21.348318   19.943381   23.119000 C.3        1 MOL1        -0.1761
      11    H7      22.183287   20.474344   23.594805 H          1 MOL1         0.0832
      12    H8      21.800036   19.230382   22.417159 H          1 MOL1         0.0832
      13    C5      20.470068   20.965063   22.362384 C.3        1 MOL1         0.1218
      14    H9      19.733656   21.375287   23.068258 H          1 MOL1         0.0789
      15    C6      19.707872   20.383019   21.150122 C.3        1 MOL1        -0.1761
      16    H10     18.898529   21.081514   20.901289 H          1 MOL1         0.0832
      17    H11     20.372320   20.368877   20.275811 H          1 MOL1         0.0832
      18    C7      19.106135   18.966079   21.324009 C.3        1 MOL1        -0.1685
      19    H12     18.322824   18.834512   20.565104 H          1 MOL1         0.0832
      20    H13     19.869956   18.211494   21.091866 H          1 MOL1         0.0832
      21    O1      21.297323   22.023937   21.895850 O.3        1 MOL1        -0.5509
      22    H14     21.712109   22.427583   22.686825 H          1 MOL1         0.3779
@<TRIPOS>BOND
    1     1     2    1
    2     1     3    1
    3     1     4    1
    4     4     5    1
    5     4     6    1
    6     4     7    1
    7     7     8    1
    8     7     9    1
    9     7    10    1
   10    10    11    1
   11    10    12    1
   12    10    13    1
   13    13    14    1
   14    13    15    1
   15    15    16    1
   16    15    17    1
   17     1    18    1
   18    15    18    1
   19    18    19    1
   20    18    20    1
   21    13    21    1
   22    21    22    1
@<TRIPOS>SUBSTRUCTURE
       1 MOL1            1 RESIDUE      1      MOL     
@<SCITEGIC>MOL_PROPERTY
VConf Rank
SciTegic.value.IntegerValue
634

@<SCITEGIC>MOL_PROPERTY
Conf_Id
SciTegic.value.IntegerValue
144

@<SCITEGIC>MOL_PROPERTY
Delta U+W
SciTegic.value.DoubleValue
-3.291

@<SCITEGIC>MOL_PROPERTY
U+W
SciTegic.value.DoubleValue
3.132

@<SCITEGIC>MOL_PROPERTY
Grad RMS
SciTegic.value.DoubleValue
0.000000

@<SCITEGIC>MOL_PROPERTY
U
SciTegic.value.DoubleValue
5.411

@<SCITEGIC>MOL_PROPERTY
W
SciTegic.value.DoubleValue
-2.279

@<SCITEGIC>MOL_PROPERTY
W(PB)
SciTegic.value.DoubleValue
-4.300

@<SCITEGIC>MOL_PROPERTY
W(SA)
SciTegic.value.DoubleValue
2.021

@<SCITEGIC>MOL_PROPERTY
Valence
SciTegic.value.DoubleValue
11.909

@<SCITEGIC>MOL_PROPERTY
Coulomb
SciTegic.value.DoubleValue
-8.733

@<SCITEGIC>MOL_PROPERTY
VdW
SciTegic.value.DoubleValue
2.236

@<SCITEGIC>MOL_PROPERTY
VdW6
SciTegic.value.DoubleValue
-8.936

@<SCITEGIC>MOL_PROPERTY
VdW12
SciTegic.value.DoubleValue
11.172

@<SCITEGIC>MOL_PROPERTY
Bond
SciTegic.value.DoubleValue
0.223

@<SCITEGIC>MOL_PROPERTY
Angle
SciTegic.value.DoubleValue
2.457

@<SCITEGIC>MOL_PROPERTY
Pdih
SciTegic.value.DoubleValue
9.228

@<SCITEGIC>MOL_PROPERTY
Idih
SciTegic.value.DoubleValue
0.000

@<SCITEGIC>MOL_PROPERTY
Tether
SciTegic.value.DoubleValue
0.000

@<TRIPOS>MOLECULE
guest-5_confgen4.mol2 : confsearch ligand conformer 635
          22          22           1
SMALL
USER_CHARGES
 
@<TRIPOS>ATOM
       1    C1      20.193584   19.245306   20.966911 C.3        1 MOL1        -0.1685
       2    H1      20.290553   19.338177   19.876562 H          1 MOL1         0.0832
       3    H2      20.424571   18.197970   21.204429 H          1 MOL1         0.0832
       4    C2      18.734405   19.587989   21.348277 C.3        1 MOL1        -0.1685
       5    H3      18.620299   20.678582   21.414316 H          1 MOL1         0.0832
       6    H4      18.070364   19.273084   20.531649 H          1 MOL1         0.0832
       7    C3      18.226361   18.932565   22.655271 C.3        1 MOL1        -0.1685
       8    H5      17.881536   17.913358   22.433397 H          1 MOL1         0.0832
       9    H6      17.336004   19.482221   22.990176 H          1 MOL1         0.0832
      10    C4      19.239848   18.854969   23.823587 C.3        1 MOL1        -0.1761
      11    H7      18.672765   18.689973   24.749688 H          1 MOL1         0.0832
      12    H8      19.868498   17.964110   23.696845 H          1 MOL1         0.0832
      13    C5      20.142693   20.098324   23.986473 C.3        1 MOL1         0.1218
      14    H9      19.579160   21.001199   23.711303 H          1 MOL1         0.0789
      15    C6      21.430190   20.011251   23.135740 C.3        1 MOL1        -0.1761
      16    H10     22.132844   20.781266   23.481407 H          1 MOL1         0.0832
      17    H11     21.923810   19.047415   23.315869 H          1 MOL1         0.0832
      18    C7      21.225846   20.199775   21.613762 C.3        1 MOL1        -0.1685
      19    H12     20.937459   21.240347   21.411355 H          1 MOL1         0.0832
      20    H13     22.195082   20.056007   21.117073 H          1 MOL1         0.0832
      21    O1      20.527377   20.195432   25.351317 O.3        1 MOL1        -0.5509
      22    H14     21.022823   19.376307   25.558021 H          1 MOL1         0.3779
@<TRIPOS>BOND
    1     1     2    1
    2     1     3    1
    3     1     4    1
    4     4     5    1
    5     4     6    1
    6     4     7    1
    7     7     8    1
    8     7     9    1
    9     7    10    1
   10    10    11    1
   11    10    12    1
   12    10    13    1
   13    13    14    1
   14    13    15    1
   15    15    16    1
   16    15    17    1
   17     1    18    1
   18    15    18    1
   19    18    19    1
   20    18    20    1
   21    13    21    1
   22    21    22    1
@<TRIPOS>SUBSTRUCTURE
       1 MOL1            1 RESIDUE      1      MOL     
@<SCITEGIC>MOL_PROPERTY
VConf Rank
SciTegic.value.IntegerValue
635

@<SCITEGIC>MOL_PROPERTY
Conf_Id
SciTegic.value.IntegerValue
76

@<SCITEGIC>MOL_PROPERTY
Delta U+W
SciTegic.value.DoubleValue
-3.175

@<SCITEGIC>MOL_PROPERTY
U+W
SciTegic.value.DoubleValue
3.248

@<SCITEGIC>MOL_PROPERTY
Grad RMS
SciTegic.value.DoubleValue
0.000000

@<SCITEGIC>MOL_PROPERTY
U
SciTegic.value.DoubleValue
5.336

@<SCITEGIC>MOL_PROPERTY
W
SciTegic.value.DoubleValue
-2.088

@<SCITEGIC>MOL_PROPERTY
W(PB)
SciTegic.value.DoubleValue
-4.098

@<SCITEGIC>MOL_PROPERTY
W(SA)
SciTegic.value.DoubleValue
2.010

@<SCITEGIC>MOL_PROPERTY
Valence
SciTegic.value.DoubleValue
12.390

@<SCITEGIC>MOL_PROPERTY
Coulomb
SciTegic.value.DoubleValue
-9.270

@<SCITEGIC>MOL_PROPERTY
VdW
SciTegic.value.DoubleValue
2.216

@<SCITEGIC>MOL_PROPERTY
VdW6
SciTegic.value.DoubleValue
-8.967

@<SCITEGIC>MOL_PROPERTY
VdW12
SciTegic.value.DoubleValue
11.183

@<SCITEGIC>MOL_PROPERTY
Bond
SciTegic.value.DoubleValue
0.218

@<SCITEGIC>MOL_PROPERTY
Angle
SciTegic.value.DoubleValue
2.426

@<SCITEGIC>MOL_PROPERTY
Pdih
SciTegic.value.DoubleValue
9.745

@<SCITEGIC>MOL_PROPERTY
Idih
SciTegic.value.DoubleValue
0.000

@<SCITEGIC>MOL_PROPERTY
Tether
SciTegic.value.DoubleValue
0.000

@<TRIPOS>MOLECULE
guest-5_confgen4.mol2 : confsearch ligand conformer 636
          22          22           1
SMALL
USER_CHARGES
 
@<TRIPOS>ATOM
       1    C1      19.323792   20.507344   21.252347 C.3        1 MOL1        -0.1685
       2    H1      19.602005   20.435034   20.192087 H          1 MOL1         0.0832
       3    H2      18.463545   21.189584   21.288937 H          1 MOL1         0.0832
       4    C2      20.504867   21.147985   22.020015 C.3        1 MOL1        -0.1685
       5    H3      21.453671   20.797331   21.591888 H          1 MOL1         0.0832
       6    H4      20.482022   22.230712   21.835719 H          1 MOL1         0.0832
       7    C3      20.505662   20.898246   23.546177 C.3        1 MOL1        -0.1685
       8    H5      19.483481   20.914968   23.948301 H          1 MOL1         0.0832
       9    H6      21.036122   21.730737   24.027698 H          1 MOL1         0.0832
      10    C4      21.231088   19.586209   23.939110 C.3        1 MOL1        -0.1761
      11    H7      22.220676   19.565203   23.464993 H          1 MOL1         0.0832
      12    H8      21.422485   19.602052   25.020096 H          1 MOL1         0.0832
      13    C5      20.491496   18.270570   23.605651 C.3        1 MOL1         0.1218
      14    H9      21.206679   17.452902   23.776028 H          1 MOL1         0.0789
      15    C6      19.996088   18.145384   22.142987 C.3        1 MOL1        -0.1761
      16    H10     20.841930   18.259030   21.452688 H          1 MOL1         0.0832
      17    H11     19.635456   17.118269   22.002388 H          1 MOL1         0.0832
      18    C7      18.854965   19.118585   21.748103 C.3        1 MOL1        -0.1685
      19    H12     18.259080   18.658703   20.948196 H          1 MOL1         0.0832
      20    H13     18.161564   19.247369   22.589561 H          1 MOL1         0.0832
      21    O1      19.402360   18.102282   24.507587 O.3        1 MOL1        -0.5509
      22    H14     18.933187   17.289311   24.229670 H          1 MOL1         0.3779
@<TRIPOS>BOND
    1     1     2    1
    2     1     3    1
    3     1     4    1
    4     4     5    1
    5     4     6    1
    6     4     7    1
    7     7     8    1
    8     7     9    1
    9     7    10    1
   10    10    11    1
   11    10    12    1
   12    10    13    1
   13    13    14    1
   14    13    15    1
   15    15    16    1
   16    15    17    1
   17     1    18    1
   18    15    18    1
   19    18    19    1
   20    18    20    1
   21    13    21    1
   22    21    22    1
@<TRIPOS>SUBSTRUCTURE
       1 MOL1            1 RESIDUE      1      MOL     
@<SCITEGIC>MOL_PROPERTY
VConf Rank
SciTegic.value.IntegerValue
636

@<SCITEGIC>MOL_PROPERTY
Conf_Id
SciTegic.value.IntegerValue
95

@<SCITEGIC>MOL_PROPERTY
Delta U+W
SciTegic.value.DoubleValue
-2.289

@<SCITEGIC>MOL_PROPERTY
U+W
SciTegic.value.DoubleValue
4.134

@<SCITEGIC>MOL_PROPERTY
Grad RMS
SciTegic.value.DoubleValue
0.000000

@<SCITEGIC>MOL_PROPERTY
U
SciTegic.value.DoubleValue
6.373

@<SCITEGIC>MOL_PROPERTY
W
SciTegic.value.DoubleValue
-2.240

@<SCITEGIC>MOL_PROPERTY
W(PB)
SciTegic.value.DoubleValue
-4.254

@<SCITEGIC>MOL_PROPERTY
W(SA)
SciTegic.value.DoubleValue
2.015

@<SCITEGIC>MOL_PROPERTY
Valence
SciTegic.value.DoubleValue
12.093

@<SCITEGIC>MOL_PROPERTY
Coulomb
SciTegic.value.DoubleValue
-8.058

@<SCITEGIC>MOL_PROPERTY
VdW
SciTegic.value.DoubleValue
2.339

@<SCITEGIC>MOL_PROPERTY
VdW6
SciTegic.value.DoubleValue
-9.683

@<SCITEGIC>MOL_PROPERTY
VdW12
SciTegic.value.DoubleValue
12.022

@<SCITEGIC>MOL_PROPERTY
Bond
SciTegic.value.DoubleValue
0.268

@<SCITEGIC>MOL_PROPERTY
Angle
SciTegic.value.DoubleValue
3.005

@<SCITEGIC>MOL_PROPERTY
Pdih
SciTegic.value.DoubleValue
8.820

@<SCITEGIC>MOL_PROPERTY
Idih
SciTegic.value.DoubleValue
0.000

@<SCITEGIC>MOL_PROPERTY
Tether
SciTegic.value.DoubleValue
0.000

@<TRIPOS>MOLECULE
guest-5_confgen4.mol2 : confsearch ligand conformer 637
          22          22           1
SMALL
USER_CHARGES
 
@<TRIPOS>ATOM
       1    C1      20.807322   19.922503   24.434756 C.3        1 MOL1        -0.1685
       2    H1      21.015803   19.179468   25.216541 H          1 MOL1         0.0832
       3    H2      21.165855   20.881796   24.832250 H          1 MOL1         0.0832
       4    C2      19.274402   20.002622   24.239649 C.3        1 MOL1        -0.1685
       5    H3      18.837229   19.002410   24.361857 H          1 MOL1         0.0832
       6    H4      18.859274   20.606144   25.058325 H          1 MOL1         0.0832
       7    C3      18.815979   20.603535   22.890476 C.3        1 MOL1        -0.1685
       8    H5      19.474832   21.426921   22.582635 H          1 MOL1         0.0832
       9    H6      17.821545   21.046729   23.035757 H          1 MOL1         0.0832
      10    C4      18.699385   19.538534   21.770884 C.3        1 MOL1        -0.1761
      11    H7      18.106780   18.691972   22.141085 H          1 MOL1         0.0832
      12    H8      18.116092   19.962049   20.943003 H          1 MOL1         0.0832
      13    C5      20.031424   18.998470   21.201903 C.3        1 MOL1         0.1218
      14    H9      19.778542   18.143061   20.558921 H          1 MOL1         0.0789
      15    C6      21.040222   18.487838   22.261108 C.3        1 MOL1        -0.1761
      16    H10     20.578397   17.699127   22.868679 H          1 MOL1         0.0832
      17    H11     21.863396   18.005170   21.718665 H          1 MOL1         0.0832
      18    C7      21.644325   19.582867   23.178394 C.3        1 MOL1        -0.1685
      19    H12     22.637168   19.253826   23.513372 H          1 MOL1         0.0832
      20    H13     21.822785   20.498342   22.599018 H          1 MOL1         0.0832
      21    O1      20.638551   19.999256   20.390289 O.3        1 MOL1        -0.5509
      22    H14     19.957029   20.297175   19.753925 H          1 MOL1         0.3779
@<TRIPOS>BOND
    1     1     2    1
    2     1     3    1
    3     1     4    1
    4     4     5    1
    5     4     6    1
    6     4     7    1
    7     7     8    1
    8     7     9    1
    9     7    10    1
   10    10    11    1
   11    10    12    1
   12    10    13    1
   13    13    14    1
   14    13    15    1
   15    15    16    1
   16    15    17    1
   17     1    18    1
   18    15    18    1
   19    18    19    1
   20    18    20    1
   21    13    21    1
   22    21    22    1
@<TRIPOS>SUBSTRUCTURE
       1 MOL1            1 RESIDUE      1      MOL     
@<SCITEGIC>MOL_PROPERTY
VConf Rank
SciTegic.value.IntegerValue
637

@<SCITEGIC>MOL_PROPERTY
Conf_Id
SciTegic.value.IntegerValue
41

@<SCITEGIC>MOL_PROPERTY
Delta U+W
SciTegic.value.DoubleValue
-2.114

@<SCITEGIC>MOL_PROPERTY
U+W
SciTegic.value.DoubleValue
4.310

@<SCITEGIC>MOL_PROPERTY
Grad RMS
SciTegic.value.DoubleValue
0.000000

@<SCITEGIC>MOL_PROPERTY
U
SciTegic.value.DoubleValue
6.598

@<SCITEGIC>MOL_PROPERTY
W
SciTegic.value.DoubleValue
-2.289

@<SCITEGIC>MOL_PROPERTY
W(PB)
SciTegic.value.DoubleValue
-4.294

@<SCITEGIC>MOL_PROPERTY
W(SA)
SciTegic.value.DoubleValue
2.005

@<SCITEGIC>MOL_PROPERTY
Valence
SciTegic.value.DoubleValue
12.082

@<SCITEGIC>MOL_PROPERTY
Coulomb
SciTegic.value.DoubleValue
-7.801

@<SCITEGIC>MOL_PROPERTY
VdW
SciTegic.value.DoubleValue
2.317

@<SCITEGIC>MOL_PROPERTY
VdW6
SciTegic.value.DoubleValue
-9.658

@<SCITEGIC>MOL_PROPERTY
VdW12
SciTegic.value.DoubleValue
11.975

@<SCITEGIC>MOL_PROPERTY
Bond
SciTegic.value.DoubleValue
0.267

@<SCITEGIC>MOL_PROPERTY
Angle
SciTegic.value.DoubleValue
3.051

@<SCITEGIC>MOL_PROPERTY
Pdih
SciTegic.value.DoubleValue
8.764

@<SCITEGIC>MOL_PROPERTY
Idih
SciTegic.value.DoubleValue
0.000

@<SCITEGIC>MOL_PROPERTY
Tether
SciTegic.value.DoubleValue
0.000

@<TRIPOS>MOLECULE
guest-5_confgen4.mol2 : confsearch ligand conformer 638
          22          22           1
SMALL
USER_CHARGES
 
@<TRIPOS>ATOM
       1    C1      19.162363   20.459818   21.678646 C.3        1 MOL1        -0.1685
       2    H1      18.685847   21.265501   21.103879 H          1 MOL1         0.0832
       3    H2      18.982911   19.532895   21.116698 H          1 MOL1         0.0832
       4    C2      18.481259   20.399410   23.064228 C.3        1 MOL1        -0.1685
       5    H3      18.724149   21.307176   23.633040 H          1 MOL1         0.0832
       6    H4      17.392351   20.416254   22.920855 H          1 MOL1         0.0832
       7    C3      18.839117   19.153799   23.904235 C.3        1 MOL1        -0.1685
       8    H5      18.406962   18.260038   23.434850 H          1 MOL1         0.0832
       9    H6      18.337917   19.246382   24.877042 H          1 MOL1         0.0832
      10    C4      20.356646   18.940792   24.155075 C.3        1 MOL1        -0.1761
      11    H7      20.805471   19.860051   24.552287 H          1 MOL1         0.0832
      12    H8      20.459747   18.192659   24.951474 H          1 MOL1         0.0832
      13    C5      21.180501   18.434056   22.943253 C.3        1 MOL1         0.1218
      14    H9      22.122877   18.036201   23.346881 H          1 MOL1         0.0789
      15    C6      21.578746   19.508889   21.898613 C.3        1 MOL1        -0.1761
      16    H10     22.591593   19.856745   22.139861 H          1 MOL1         0.0832
      17    H11     21.664484   19.034542   20.912147 H          1 MOL1         0.0832
      18    C7      20.674853   20.759991   21.769693 C.3        1 MOL1        -0.1685
      19    H12     20.867882   21.447265   22.604443 H          1 MOL1         0.0832
      20    H13     20.980218   21.302910   20.864890 H          1 MOL1         0.0832
      21    O1      20.503184   17.361610   22.293622 O.3        1 MOL1        -0.5509
      22    H14     21.084808   17.058648   21.567098 H          1 MOL1         0.3779
@<TRIPOS>BOND
    1     1     2    1
    2     1     3    1
    3     1     4    1
    4     4     5    1
    5     4     6    1
    6     4     7    1
    7     7     8    1
    8     7     9    1
    9     7    10    1
   10    10    11    1
   11    10    12    1
   12    10    13    1
   13    13    14    1
   14    13    15    1
   15    15    16    1
   16    15    17    1
   17     1    18    1
   18    15    18    1
   19    18    19    1
   20    18    20    1
   21    13    21    1
   22    21    22    1
@<TRIPOS>SUBSTRUCTURE
       1 MOL1            1 RESIDUE      1      MOL     
@<SCITEGIC>MOL_PROPERTY
VConf Rank
SciTegic.value.IntegerValue
638

@<SCITEGIC>MOL_PROPERTY
Conf_Id
SciTegic.value.IntegerValue
104

@<SCITEGIC>MOL_PROPERTY
Delta U+W
SciTegic.value.DoubleValue
-1.172

@<SCITEGIC>MOL_PROPERTY
U+W
SciTegic.value.DoubleValue
5.252

@<SCITEGIC>MOL_PROPERTY
Grad RMS
SciTegic.value.DoubleValue
0.000000

@<SCITEGIC>MOL_PROPERTY
U
SciTegic.value.DoubleValue
7.482

@<SCITEGIC>MOL_PROPERTY
W
SciTegic.value.DoubleValue
-2.230

@<SCITEGIC>MOL_PROPERTY
W(PB)
SciTegic.value.DoubleValue
-4.220

@<SCITEGIC>MOL_PROPERTY
W(SA)
SciTegic.value.DoubleValue
1.990

@<SCITEGIC>MOL_PROPERTY
Valence
SciTegic.value.DoubleValue
12.309

@<SCITEGIC>MOL_PROPERTY
Coulomb
SciTegic.value.DoubleValue
-7.084

@<SCITEGIC>MOL_PROPERTY
VdW
SciTegic.value.DoubleValue
2.258

@<SCITEGIC>MOL_PROPERTY
VdW6
SciTegic.value.DoubleValue
-9.770

@<SCITEGIC>MOL_PROPERTY
VdW12
SciTegic.value.DoubleValue
12.028

@<SCITEGIC>MOL_PROPERTY
Bond
SciTegic.value.DoubleValue
0.284

@<SCITEGIC>MOL_PROPERTY
Angle
SciTegic.value.DoubleValue
3.491

@<SCITEGIC>MOL_PROPERTY
Pdih
SciTegic.value.DoubleValue
8.535

@<SCITEGIC>MOL_PROPERTY
Idih
SciTegic.value.DoubleValue
0.000

@<SCITEGIC>MOL_PROPERTY
Tether
SciTegic.value.DoubleValue
0.000

@<TRIPOS>MOLECULE
guest-5_confgen4.mol2 : confsearch ligand conformer 639
          22          22           1
SMALL
USER_CHARGES
 
@<TRIPOS>ATOM
       1    C1      21.368632   19.359424   23.644274 C.3        1 MOL1        -0.1685
       2    H1      20.804646   19.586999   24.558939 H          1 MOL1         0.0832
       3    H2      22.400292   19.162558   23.966546 H          1 MOL1         0.0832
       4    C2      21.394672   20.578326   22.693967 C.3        1 MOL1        -0.1685
       5    H3      22.155337   21.285648   23.052203 H          1 MOL1         0.0832
       6    H4      21.746790   20.260123   21.703969 H          1 MOL1         0.0832
       7    C3      20.058654   21.351596   22.556901 C.3        1 MOL1        -0.1685
       8    H5      20.051185   21.863343   21.584598 H          1 MOL1         0.0832
       9    H6      20.042668   22.153293   23.307870 H          1 MOL1         0.0832
      10    C4      18.745850   20.537329   22.714121 C.3        1 MOL1        -0.1761
      11    H7      18.553468   20.369342   23.781699 H          1 MOL1         0.0832
      12    H8      17.914480   21.164648   22.367283 H          1 MOL1         0.0832
      13    C5      18.665153   19.181474   21.975794 C.3        1 MOL1         0.1218
      14    H9      17.599811   18.938373   21.854017 H          1 MOL1         0.0789
      15    C6      19.298947   18.022564   22.777979 C.3        1 MOL1        -0.1761
      16    H10     18.818870   17.973703   23.763981 H          1 MOL1         0.0832
      17    H11     19.042536   17.079687   22.277497 H          1 MOL1         0.0832
      18    C7      20.835002   18.073268   22.969691 C.3        1 MOL1        -0.1685
      19    H12     21.125178   17.213397   23.588667 H          1 MOL1         0.0832
      20    H13     21.336025   17.923739   22.003722 H          1 MOL1         0.0832
      21    O1      19.266429   19.275328   20.693675 O.3        1 MOL1        -0.5509
      22    H14     20.179086   19.573362   20.879467 H          1 MOL1         0.3779
@<TRIPOS>BOND
    1     1     2    1
    2     1     3    1
    3     1     4    1
    4     4     5    1
    5     4     6    1
    6     4     7    1
    7     7     8    1
    8     7     9    1
    9     7    10    1
   10    10    11    1
   11    10    12    1
   12    10    13    1
   13    13    14    1
   14    13    15    1
   15    15    16    1
   16    15    17    1
   17     1    18    1
   18    15    18    1
   19    18    19    1
   20    18    20    1
   21    13    21    1
   22    21    22    1
@<TRIPOS>SUBSTRUCTURE
       1 MOL1            1 RESIDUE      1      MOL     
@<SCITEGIC>MOL_PROPERTY
VConf Rank
SciTegic.value.IntegerValue
639

@<SCITEGIC>MOL_PROPERTY
Conf_Id
SciTegic.value.IntegerValue
99

@<SCITEGIC>MOL_PROPERTY
Delta U+W
SciTegic.value.DoubleValue
-3.852

@<SCITEGIC>MOL_PROPERTY
U+W
SciTegic.value.DoubleValue
2.572

@<SCITEGIC>MOL_PROPERTY
Grad RMS
SciTegic.value.DoubleValue
0.000000

@<SCITEGIC>MOL_PROPERTY
U
SciTegic.value.DoubleValue
3.922

@<SCITEGIC>MOL_PROPERTY
W
SciTegic.value.DoubleValue
-1.350

@<SCITEGIC>MOL_PROPERTY
W(PB)
SciTegic.value.DoubleValue
-3.345

@<SCITEGIC>MOL_PROPERTY
W(SA)
SciTegic.value.DoubleValue
1.995

@<SCITEGIC>MOL_PROPERTY
Valence
SciTegic.value.DoubleValue
12.571

@<SCITEGIC>MOL_PROPERTY
Coulomb
SciTegic.value.DoubleValue
-10.581

@<SCITEGIC>MOL_PROPERTY
VdW
SciTegic.value.DoubleValue
1.932

@<SCITEGIC>MOL_PROPERTY
VdW6
SciTegic.value.DoubleValue
-10.483

@<SCITEGIC>MOL_PROPERTY
VdW12
SciTegic.value.DoubleValue
12.415

@<SCITEGIC>MOL_PROPERTY
Bond
SciTegic.value.DoubleValue
0.268

@<SCITEGIC>MOL_PROPERTY
Angle
SciTegic.value.DoubleValue
3.728

@<SCITEGIC>MOL_PROPERTY
Pdih
SciTegic.value.DoubleValue
8.575

@<SCITEGIC>MOL_PROPERTY
Idih
SciTegic.value.DoubleValue
0.000

@<SCITEGIC>MOL_PROPERTY
Tether
SciTegic.value.DoubleValue
0.000

@<TRIPOS>MOLECULE
guest-5_confgen4.mol2 : confsearch ligand conformer 640
          22          22           1
SMALL
USER_CHARGES
 
@<TRIPOS>ATOM
       1    C1      20.835885   20.238877   21.341832 C.3        1 MOL1        -0.1685
       2    H1      21.544364   20.936217   20.873787 H          1 MOL1         0.0832
       3    H2      20.421930   19.654578   20.509191 H          1 MOL1         0.0832
       4    C2      19.713360   21.080272   22.016995 C.3        1 MOL1        -0.1685
       5    H3      19.935889   22.141786   21.841041 H          1 MOL1         0.0832
       6    H4      18.753709   20.904870   21.512656 H          1 MOL1         0.0832
       7    C3      19.540917   20.880868   23.544494 C.3        1 MOL1        -0.1685
       8    H5      18.864810   21.660295   23.921454 H          1 MOL1         0.0832
       9    H6      20.493842   21.073139   24.052957 H          1 MOL1         0.0832
      10    C4      18.975812   19.504303   23.992329 C.3        1 MOL1        -0.1761
      11    H7      19.265154   19.338593   25.038065 H          1 MOL1         0.0832
      12    H8      17.879390   19.565769   24.001012 H          1 MOL1         0.0832
      13    C5      19.366157   18.250620   23.171313 C.3        1 MOL1         0.1218
      14    H9      19.065879   17.374563   23.763876 H          1 MOL1         0.0789
      15    C6      20.872008   18.082641   22.851406 C.3        1 MOL1        -0.1761
      16    H10     21.385439   17.748673   23.762227 H          1 MOL1         0.0832
      17    H11     20.968562   17.249842   22.142096 H          1 MOL1         0.0832
      18    C7      21.642441   19.305404   22.280369 C.3        1 MOL1        -0.1685
      19    H12     22.072394   19.889523   23.103482 H          1 MOL1         0.0832
      20    H13     22.512464   18.925920   21.727398 H          1 MOL1         0.0832
      21    O1      18.617038   18.218131   21.966735 O.3        1 MOL1        -0.5509
      22    H14     18.918428   19.011020   21.479473 H          1 MOL1         0.3779
@<TRIPOS>BOND
    1     1     2    1
    2     1     3    1
    3     1     4    1
    4     4     5    1
    5     4     6    1
    6     4     7    1
    7     7     8    1
    8     7     9    1
    9     7    10    1
   10    10    11    1
   11    10    12    1
   12    10    13    1
   13    13    14    1
   14    13    15    1
   15    15    16    1
   16    15    17    1
   17     1    18    1
   18    15    18    1
   19    18    19    1
   20    18    20    1
   21    13    21    1
   22    21    22    1
@<TRIPOS>SUBSTRUCTURE
       1 MOL1            1 RESIDUE      1      MOL     
@<SCITEGIC>MOL_PROPERTY
VConf Rank
SciTegic.value.IntegerValue
640

@<SCITEGIC>MOL_PROPERTY
Conf_Id
SciTegic.value.IntegerValue
98

@<SCITEGIC>MOL_PROPERTY
Delta U+W
SciTegic.value.DoubleValue
0.930

@<SCITEGIC>MOL_PROPERTY
U+W
SciTegic.value.DoubleValue
7.353

@<SCITEGIC>MOL_PROPERTY
Grad RMS
SciTegic.value.DoubleValue
0.000000

@<SCITEGIC>MOL_PROPERTY
U
SciTegic.value.DoubleValue
8.455

@<SCITEGIC>MOL_PROPERTY
W
SciTegic.value.DoubleValue
-1.102

@<SCITEGIC>MOL_PROPERTY
W(PB)
SciTegic.value.DoubleValue
-3.101

@<SCITEGIC>MOL_PROPERTY
W(SA)
SciTegic.value.DoubleValue
2.000

@<SCITEGIC>MOL_PROPERTY
Valence
SciTegic.value.DoubleValue
15.601

@<SCITEGIC>MOL_PROPERTY
Coulomb
SciTegic.value.DoubleValue
-10.573

@<SCITEGIC>MOL_PROPERTY
VdW
SciTegic.value.DoubleValue
3.427

@<SCITEGIC>MOL_PROPERTY
VdW6
SciTegic.value.DoubleValue
-11.360

@<SCITEGIC>MOL_PROPERTY
VdW12
SciTegic.value.DoubleValue
14.787

@<SCITEGIC>MOL_PROPERTY
Bond
SciTegic.value.DoubleValue
0.471

@<SCITEGIC>MOL_PROPERTY
Angle
SciTegic.value.DoubleValue
5.445

@<SCITEGIC>MOL_PROPERTY
Pdih
SciTegic.value.DoubleValue
9.685

@<SCITEGIC>MOL_PROPERTY
Idih
SciTegic.value.DoubleValue
0.000

@<SCITEGIC>MOL_PROPERTY
Tether
SciTegic.value.DoubleValue
0.000

@<TRIPOS>MOLECULE
guest-5_confgen4.mol2 : confsearch ligand conformer 641
          22          22           1
SMALL
USER_CHARGES
 
@<TRIPOS>ATOM
       1    C1      18.609797   19.893248   23.576246 C.3        1 MOL1        -0.1685
       2    H1      19.031167   19.261782   24.369012 H          1 MOL1         0.0832
       3    H2      17.677353   20.294141   23.996419 H          1 MOL1         0.0832
       4    C2      18.260611   19.022275   22.342700 C.3        1 MOL1        -0.1685
       5    H3      17.537897   18.261860   22.668780 H          1 MOL1         0.0832
       6    H4      17.733217   19.633913   21.598135 H          1 MOL1         0.0832
       7    C3      19.450346   18.295606   21.656311 C.3        1 MOL1        -0.1685
       8    H5      19.727425   18.818020   20.731473 H          1 MOL1         0.0832
       9    H6      19.104259   17.305794   21.329005 H          1 MOL1         0.0832
      10    C4      20.709575   18.113235   22.544451 C.3        1 MOL1        -0.1761
      11    H7      20.416091   17.648423   23.493895 H          1 MOL1         0.0832
      12    H8      21.367952   17.377902   22.062567 H          1 MOL1         0.0832
      13    C5      21.527104   19.405080   22.838823 C.3        1 MOL1         0.1218
      14    H9      21.760424   19.420909   23.913243 H          1 MOL1         0.0789
      15    C6      20.834335   20.742272   22.475164 C.3        1 MOL1        -0.1761
      16    H10     21.550586   21.562670   22.612959 H          1 MOL1         0.0832
      17    H11     20.590813   20.752968   21.405972 H          1 MOL1         0.0832
      18    C7      19.564817   21.077601   23.297165 C.3        1 MOL1        -0.1685
      19    H12     19.868950   21.505842   24.262011 H          1 MOL1         0.0832
      20    H13     19.012129   21.871150   22.776121 H          1 MOL1         0.0832
      21    O1      22.745993   19.343575   22.106905 O.3        1 MOL1        -0.5509
      22    H14     23.264413   20.137536   22.353979 H          1 MOL1         0.3779
@<TRIPOS>BOND
    1     1     2    1
    2     1     3    1
    3     1     4    1
    4     4     5    1
    5     4     6    1
    6     4     7    1
    7     7     8    1
    8     7     9    1
    9     7    10    1
   10    10    11    1
   11    10    12    1
   12    10    13    1
   13    13    14    1
   14    13    15    1
   15    15    16    1
   16    15    17    1
   17     1    18    1
   18    15    18    1
   19    18    19    1
   20    18    20    1
   21    13    21    1
   22    21    22    1
@<TRIPOS>SUBSTRUCTURE
       1 MOL1            1 RESIDUE      1      MOL     
@<SCITEGIC>MOL_PROPERTY
VConf Rank
SciTegic.value.IntegerValue
641

@<SCITEGIC>MOL_PROPERTY
Conf_Id
SciTegic.value.IntegerValue
141

@<SCITEGIC>MOL_PROPERTY
Delta U+W
SciTegic.value.DoubleValue
0.000

@<SCITEGIC>MOL_PROPERTY
U+W
SciTegic.value.DoubleValue
6.423

@<SCITEGIC>MOL_PROPERTY
Grad RMS
SciTegic.value.DoubleValue
0.000000

@<SCITEGIC>MOL_PROPERTY
U
SciTegic.value.DoubleValue
8.781

@<SCITEGIC>MOL_PROPERTY
W
SciTegic.value.DoubleValue
-2.358

@<SCITEGIC>MOL_PROPERTY
W(PB)
SciTegic.value.DoubleValue
-4.373

@<SCITEGIC>MOL_PROPERTY
W(SA)
SciTegic.value.DoubleValue
2.015

@<SCITEGIC>MOL_PROPERTY
Valence
SciTegic.value.DoubleValue
13.328

@<SCITEGIC>MOL_PROPERTY
Coulomb
SciTegic.value.DoubleValue
-8.387

@<SCITEGIC>MOL_PROPERTY
VdW
SciTegic.value.DoubleValue
3.840

@<SCITEGIC>MOL_PROPERTY
VdW6
SciTegic.value.DoubleValue
-9.744

@<SCITEGIC>MOL_PROPERTY
VdW12
SciTegic.value.DoubleValue
13.584

@<SCITEGIC>MOL_PROPERTY
Bond
SciTegic.value.DoubleValue
0.436

@<SCITEGIC>MOL_PROPERTY
Angle
SciTegic.value.DoubleValue
3.478

@<SCITEGIC>MOL_PROPERTY
Pdih
SciTegic.value.DoubleValue
9.415

@<SCITEGIC>MOL_PROPERTY
Idih
SciTegic.value.DoubleValue
0.000

@<SCITEGIC>MOL_PROPERTY
Tether
SciTegic.value.DoubleValue
0.000

@<TRIPOS>MOLECULE
guest-5_confgen4.mol2 : confsearch ligand conformer 642
          22          22           1
SMALL
USER_CHARGES
 
@<TRIPOS>ATOM
       1    C1      20.113415   19.704899   24.400287 C.3        1 MOL1        -0.1685
       2    H1      20.929340   20.429958   24.277148 H          1 MOL1         0.0832
       3    H2      19.946089   19.616953   25.482494 H          1 MOL1         0.0832
       4    C2      20.528672   18.309666   23.874415 C.3        1 MOL1        -0.1685
       5    H3      21.303086   17.901760   24.538306 H          1 MOL1         0.0832
       6    H4      19.675548   17.622042   23.953360 H          1 MOL1         0.0832
       7    C3      21.072562   18.285529   22.427373 C.3        1 MOL1        -0.1685
       8    H5      21.265638   17.239838   22.151550 H          1 MOL1         0.0832
       9    H6      22.048667   18.788716   22.396031 H          1 MOL1         0.0832
      10    C4      20.135366   18.911635   21.365848 C.3        1 MOL1        -0.1761
      11    H7      20.518511   18.628731   20.376581 H          1 MOL1         0.0832
      12    H8      19.127683   18.482151   21.437374 H          1 MOL1         0.0832
      13    C5      20.074677   20.452861   21.458409 C.3        1 MOL1         0.1218
      14    H9      21.055794   20.816245   21.796352 H          1 MOL1         0.0789
      15    C6      18.997267   20.996024   22.424565 C.3        1 MOL1        -0.1761
      16    H10     19.252810   22.038739   22.653239 H          1 MOL1         0.0832
      17    H11     18.029168   21.030190   21.907141 H          1 MOL1         0.0832
      18    C7      18.807879   20.226843   23.755932 C.3        1 MOL1        -0.1685
      19    H12     18.302514   20.896030   24.465595 H          1 MOL1         0.0832
      20    H13     18.116572   19.387468   23.600197 H          1 MOL1         0.0832
      21    O1      19.811629   20.979818   20.163674 O.3        1 MOL1        -0.5509
      22    H14     20.546171   20.686414   19.584899 H          1 MOL1         0.3779
@<TRIPOS>BOND
    1     1     2    1
    2     1     3    1
    3     1     4    1
    4     4     5    1
    5     4     6    1
    6     4     7    1
    7     7     8    1
    8     7     9    1
    9     7    10    1
   10    10    11    1
   11    10    12    1
   12    10    13    1
   13    13    14    1
   14    13    15    1
   15    15    16    1
   16    15    17    1
   17     1    18    1
   18    15    18    1
   19    18    19    1
   20    18    20    1
   21    13    21    1
   22    21    22    1
@<TRIPOS>SUBSTRUCTURE
       1 MOL1            1 RESIDUE      1      MOL     
@<SCITEGIC>MOL_PROPERTY
VConf Rank
SciTegic.value.IntegerValue
642

@<SCITEGIC>MOL_PROPERTY
Conf_Id
SciTegic.value.IntegerValue
144

@<SCITEGIC>MOL_PROPERTY
Delta U+W
SciTegic.value.DoubleValue
-3.291

@<SCITEGIC>MOL_PROPERTY
U+W
SciTegic.value.DoubleValue
3.132

@<SCITEGIC>MOL_PROPERTY
Grad RMS
SciTegic.value.DoubleValue
0.000000

@<SCITEGIC>MOL_PROPERTY
U
SciTegic.value.DoubleValue
5.411

@<SCITEGIC>MOL_PROPERTY
W
SciTegic.value.DoubleValue
-2.279

@<SCITEGIC>MOL_PROPERTY
W(PB)
SciTegic.value.DoubleValue
-4.300

@<SCITEGIC>MOL_PROPERTY
W(SA)
SciTegic.value.DoubleValue
2.021

@<SCITEGIC>MOL_PROPERTY
Valence
SciTegic.value.DoubleValue
11.909

@<SCITEGIC>MOL_PROPERTY
Coulomb
SciTegic.value.DoubleValue
-8.733

@<SCITEGIC>MOL_PROPERTY
VdW
SciTegic.value.DoubleValue
2.236

@<SCITEGIC>MOL_PROPERTY
VdW6
SciTegic.value.DoubleValue
-8.936

@<SCITEGIC>MOL_PROPERTY
VdW12
SciTegic.value.DoubleValue
11.172

@<SCITEGIC>MOL_PROPERTY
Bond
SciTegic.value.DoubleValue
0.223

@<SCITEGIC>MOL_PROPERTY
Angle
SciTegic.value.DoubleValue
2.457

@<SCITEGIC>MOL_PROPERTY
Pdih
SciTegic.value.DoubleValue
9.228

@<SCITEGIC>MOL_PROPERTY
Idih
SciTegic.value.DoubleValue
0.000

@<SCITEGIC>MOL_PROPERTY
Tether
SciTegic.value.DoubleValue
0.000

@<TRIPOS>MOLECULE
guest-5_confgen4.mol2 : confsearch ligand conformer 643
          22          22           1
SMALL
USER_CHARGES
 
@<TRIPOS>ATOM
       1    C1      21.069536   20.856511   22.819629 C.3        1 MOL1        -0.1685
       2    H1      21.946141   21.514190   22.742725 H          1 MOL1         0.0832
       3    H2      20.357135   21.375136   23.475521 H          1 MOL1         0.0832
       4    C2      21.527604   19.520715   23.450420 C.3        1 MOL1        -0.1685
       5    H3      21.961769   18.878689   22.671910 H          1 MOL1         0.0832
       6    H4      22.346892   19.722474   24.154024 H          1 MOL1         0.0832
       7    C3      20.426872   18.742518   24.211156 C.3        1 MOL1        -0.1685
       8    H5      20.344986   19.143933   25.230507 H          1 MOL1         0.0832
       9    H6      20.760682   17.702174   24.326368 H          1 MOL1         0.0832
      10    C4      19.015128   18.751326   23.574727 C.3        1 MOL1        -0.1761
      11    H7      18.444731   17.920379   24.011356 H          1 MOL1         0.0832
      12    H8      18.488682   19.665500   23.878102 H          1 MOL1         0.0832
      13    C5      18.994435   18.637379   22.033889 C.3        1 MOL1         0.1218
      14    H9      19.822421   17.995451   21.700967 H          1 MOL1         0.0789
      15    C6      19.092321   20.013318   21.336616 C.3        1 MOL1        -0.1761
      16    H10     18.819892   19.892096   20.279631 H          1 MOL1         0.0832
      17    H11     18.346738   20.695302   21.765672 H          1 MOL1         0.0832
      18    C7      20.485922   20.682615   21.396905 C.3        1 MOL1        -0.1685
      19    H12     21.191956   20.109467   20.780510 H          1 MOL1         0.0832
      20    H13     20.412017   21.672029   20.925328 H          1 MOL1         0.0832
      21    O1      17.764944   18.038544   21.646641 O.3        1 MOL1        -0.5509
      22    H14     17.055270   18.635881   21.960824 H          1 MOL1         0.3779
@<TRIPOS>BOND
    1     1     2    1
    2     1     3    1
    3     1     4    1
    4     4     5    1
    5     4     6    1
    6     4     7    1
    7     7     8    1
    8     7     9    1
    9     7    10    1
   10    10    11    1
   11    10    12    1
   12    10    13    1
   13    13    14    1
   14    13    15    1
   15    15    16    1
   16    15    17    1
   17     1    18    1
   18    15    18    1
   19    18    19    1
   20    18    20    1
   21    13    21    1
   22    21    22    1
@<TRIPOS>SUBSTRUCTURE
       1 MOL1            1 RESIDUE      1      MOL     
@<SCITEGIC>MOL_PROPERTY
VConf Rank
SciTegic.value.IntegerValue
643

@<SCITEGIC>MOL_PROPERTY
Conf_Id
SciTegic.value.IntegerValue
76

@<SCITEGIC>MOL_PROPERTY
Delta U+W
SciTegic.value.DoubleValue
-3.175

@<SCITEGIC>MOL_PROPERTY
U+W
SciTegic.value.DoubleValue
3.248

@<SCITEGIC>MOL_PROPERTY
Grad RMS
SciTegic.value.DoubleValue
0.000000

@<SCITEGIC>MOL_PROPERTY
U
SciTegic.value.DoubleValue
5.336

@<SCITEGIC>MOL_PROPERTY
W
SciTegic.value.DoubleValue
-2.088

@<SCITEGIC>MOL_PROPERTY
W(PB)
SciTegic.value.DoubleValue
-4.098

@<SCITEGIC>MOL_PROPERTY
W(SA)
SciTegic.value.DoubleValue
2.010

@<SCITEGIC>MOL_PROPERTY
Valence
SciTegic.value.DoubleValue
12.390

@<SCITEGIC>MOL_PROPERTY
Coulomb
SciTegic.value.DoubleValue
-9.270

@<SCITEGIC>MOL_PROPERTY
VdW
SciTegic.value.DoubleValue
2.216

@<SCITEGIC>MOL_PROPERTY
VdW6
SciTegic.value.DoubleValue
-8.967

@<SCITEGIC>MOL_PROPERTY
VdW12
SciTegic.value.DoubleValue
11.183

@<SCITEGIC>MOL_PROPERTY
Bond
SciTegic.value.DoubleValue
0.218

@<SCITEGIC>MOL_PROPERTY
Angle
SciTegic.value.DoubleValue
2.426

@<SCITEGIC>MOL_PROPERTY
Pdih
SciTegic.value.DoubleValue
9.745

@<SCITEGIC>MOL_PROPERTY
Idih
SciTegic.value.DoubleValue
0.000

@<SCITEGIC>MOL_PROPERTY
Tether
SciTegic.value.DoubleValue
0.000

@<TRIPOS>MOLECULE
guest-5_confgen4.mol2 : confsearch ligand conformer 644
          22          22           1
SMALL
USER_CHARGES
 
@<TRIPOS>ATOM
       1    C1      19.860126   20.206942   24.434771 C.3        1 MOL1        -0.1685
       2    H1      19.731297   21.253244   24.743697 H          1 MOL1         0.0832
       3    H2      19.759218   19.610751   25.351934 H          1 MOL1         0.0832
       4    C2      21.295939   20.038599   23.882703 C.3        1 MOL1        -0.1685
       5    H3      21.587551   20.946040   23.336818 H          1 MOL1         0.0832
       6    H4      21.983127   19.976673   24.737525 H          1 MOL1         0.0832
       7    C3      21.508122   18.803017   22.977243 C.3        1 MOL1        -0.1685
       8    H5      20.929278   17.943572   23.342115 H          1 MOL1         0.0832
       9    H6      22.564318   18.509125   23.043332 H          1 MOL1         0.0832
      10    C4      21.190274   19.089115   21.487545 C.3        1 MOL1        -0.1761
      11    H7      21.725963   19.993390   21.171579 H          1 MOL1         0.0832
      12    H8      21.603040   18.274131   20.878580 H          1 MOL1         0.0832
      13    C5      19.695594   19.244116   21.125597 C.3        1 MOL1         0.1218
      14    H9      19.656778   19.618420   20.092405 H          1 MOL1         0.0789
      15    C6      18.905317   20.246687   22.003549 C.3        1 MOL1        -0.1761
      16    H10     19.382438   21.234353   21.961708 H          1 MOL1         0.0832
      17    H11     17.915269   20.376891   21.547874 H          1 MOL1         0.0832
      18    C7      18.706956   19.815773   23.480093 C.3        1 MOL1        -0.1685
      19    H12     17.784073   20.273573   23.861050 H          1 MOL1         0.0832
      20    H13     18.538788   18.732297   23.537028 H          1 MOL1         0.0832
      21    O1      19.069344   17.965527   21.157912 O.3        1 MOL1        -0.5509
      22    H14     18.119410   18.115573   20.975169 H          1 MOL1         0.3779
@<TRIPOS>BOND
    1     1     2    1
    2     1     3    1
    3     1     4    1
    4     4     5    1
    5     4     6    1
    6     4     7    1
    7     7     8    1
    8     7     9    1
    9     7    10    1
   10    10    11    1
   11    10    12    1
   12    10    13    1
   13    13    14    1
   14    13    15    1
   15    15    16    1
   16    15    17    1
   17     1    18    1
   18    15    18    1
   19    18    19    1
   20    18    20    1
   21    13    21    1
   22    21    22    1
@<TRIPOS>SUBSTRUCTURE
       1 MOL1            1 RESIDUE      1      MOL     
@<SCITEGIC>MOL_PROPERTY
VConf Rank
SciTegic.value.IntegerValue
644

@<SCITEGIC>MOL_PROPERTY
Conf_Id
SciTegic.value.IntegerValue
95

@<SCITEGIC>MOL_PROPERTY
Delta U+W
SciTegic.value.DoubleValue
-2.289

@<SCITEGIC>MOL_PROPERTY
U+W
SciTegic.value.DoubleValue
4.134

@<SCITEGIC>MOL_PROPERTY
Grad RMS
SciTegic.value.DoubleValue
0.000000

@<SCITEGIC>MOL_PROPERTY
U
SciTegic.value.DoubleValue
6.373

@<SCITEGIC>MOL_PROPERTY
W
SciTegic.value.DoubleValue
-2.240

@<SCITEGIC>MOL_PROPERTY
W(PB)
SciTegic.value.DoubleValue
-4.254

@<SCITEGIC>MOL_PROPERTY
W(SA)
SciTegic.value.DoubleValue
2.015

@<SCITEGIC>MOL_PROPERTY
Valence
SciTegic.value.DoubleValue
12.093

@<SCITEGIC>MOL_PROPERTY
Coulomb
SciTegic.value.DoubleValue
-8.058

@<SCITEGIC>MOL_PROPERTY
VdW
SciTegic.value.DoubleValue
2.339

@<SCITEGIC>MOL_PROPERTY
VdW6
SciTegic.value.DoubleValue
-9.683

@<SCITEGIC>MOL_PROPERTY
VdW12
SciTegic.value.DoubleValue
12.022

@<SCITEGIC>MOL_PROPERTY
Bond
SciTegic.value.DoubleValue
0.268

@<SCITEGIC>MOL_PROPERTY
Angle
SciTegic.value.DoubleValue
3.005

@<SCITEGIC>MOL_PROPERTY
Pdih
SciTegic.value.DoubleValue
8.820

@<SCITEGIC>MOL_PROPERTY
Idih
SciTegic.value.DoubleValue
0.000

@<SCITEGIC>MOL_PROPERTY
Tether
SciTegic.value.DoubleValue
0.000

@<TRIPOS>MOLECULE
guest-5_confgen4.mol2 : confsearch ligand conformer 645
          22          22           1
SMALL
USER_CHARGES
 
@<TRIPOS>ATOM
       1    C1      19.834167   18.294671   21.354309 C.3        1 MOL1        -0.1685
       2    H1      19.378539   17.299840   21.451618 H          1 MOL1         0.0832
       3    H2      20.115906   18.391193   20.296908 H          1 MOL1         0.0832
       4    C2      21.116750   18.326280   22.219358 C.3        1 MOL1        -0.1685
       5    H3      20.956704   17.737441   23.132667 H          1 MOL1         0.0832
       6    H4      21.910436   17.803311   21.668573 H          1 MOL1         0.0832
       7    C3      21.616542   19.739645   22.598994 C.3        1 MOL1        -0.1685
       8    H5      21.469443   20.444706   21.769494 H          1 MOL1         0.0832
       9    H6      22.701126   19.684243   22.763414 H          1 MOL1         0.0832
      10    C4      20.968066   20.272864   23.901478 C.3        1 MOL1        -0.1761
      11    H7      21.057251   19.509667   24.685361 H          1 MOL1         0.0832
      12    H8      21.554318   21.128636   24.260568 H          1 MOL1         0.0832
      13    C5      19.487528   20.705500   23.798678 C.3        1 MOL1         0.1218
      14    H9      19.137287   20.885707   24.825302 H          1 MOL1         0.0789
      15    C6      18.537037   19.654399   23.172507 C.3        1 MOL1        -0.1761
      16    H10     18.585179   18.718454   23.743627 H          1 MOL1         0.0832
      17    H11     17.512732   20.028917   23.296458 H          1 MOL1         0.0832
      18    C7      18.767572   19.371791   21.665050 C.3        1 MOL1        -0.1685
      19    H12     17.818716   19.045607   21.218402 H          1 MOL1         0.0832
      20    H13     19.026740   20.303984   21.145947 H          1 MOL1         0.0832
      21    O1      19.402797   21.932002   23.079369 O.3        1 MOL1        -0.5509
      22    H14     20.031502   22.550958   23.503409 H          1 MOL1         0.3779
@<TRIPOS>BOND
    1     1     2    1
    2     1     3    1
    3     1     4    1
    4     4     5    1
    5     4     6    1
    6     4     7    1
    7     7     8    1
    8     7     9    1
    9     7    10    1
   10    10    11    1
   11    10    12    1
   12    10    13    1
   13    13    14    1
   14    13    15    1
   15    15    16    1
   16    15    17    1
   17     1    18    1
   18    15    18    1
   19    18    19    1
   20    18    20    1
   21    13    21    1
   22    21    22    1
@<TRIPOS>SUBSTRUCTURE
       1 MOL1            1 RESIDUE      1      MOL     
@<SCITEGIC>MOL_PROPERTY
VConf Rank
SciTegic.value.IntegerValue
645

@<SCITEGIC>MOL_PROPERTY
Conf_Id
SciTegic.value.IntegerValue
41

@<SCITEGIC>MOL_PROPERTY
Delta U+W
SciTegic.value.DoubleValue
-2.114

@<SCITEGIC>MOL_PROPERTY
U+W
SciTegic.value.DoubleValue
4.310

@<SCITEGIC>MOL_PROPERTY
Grad RMS
SciTegic.value.DoubleValue
0.000000

@<SCITEGIC>MOL_PROPERTY
U
SciTegic.value.DoubleValue
6.598

@<SCITEGIC>MOL_PROPERTY
W
SciTegic.value.DoubleValue
-2.289

@<SCITEGIC>MOL_PROPERTY
W(PB)
SciTegic.value.DoubleValue
-4.294

@<SCITEGIC>MOL_PROPERTY
W(SA)
SciTegic.value.DoubleValue
2.005

@<SCITEGIC>MOL_PROPERTY
Valence
SciTegic.value.DoubleValue
12.082

@<SCITEGIC>MOL_PROPERTY
Coulomb
SciTegic.value.DoubleValue
-7.801

@<SCITEGIC>MOL_PROPERTY
VdW
SciTegic.value.DoubleValue
2.317

@<SCITEGIC>MOL_PROPERTY
VdW6
SciTegic.value.DoubleValue
-9.658

@<SCITEGIC>MOL_PROPERTY
VdW12
SciTegic.value.DoubleValue
11.975

@<SCITEGIC>MOL_PROPERTY
Bond
SciTegic.value.DoubleValue
0.267

@<SCITEGIC>MOL_PROPERTY
Angle
SciTegic.value.DoubleValue
3.051

@<SCITEGIC>MOL_PROPERTY
Pdih
SciTegic.value.DoubleValue
8.764

@<SCITEGIC>MOL_PROPERTY
Idih
SciTegic.value.DoubleValue
0.000

@<SCITEGIC>MOL_PROPERTY
Tether
SciTegic.value.DoubleValue
0.000

@<TRIPOS>MOLECULE
guest-5_confgen4.mol2 : confsearch ligand conformer 646
          22          22           1
SMALL
USER_CHARGES
 
@<TRIPOS>ATOM
       1    C1      21.712778   19.203157   22.585582 C.3        1 MOL1        -0.1685
       2    H1      22.715199   18.754596   22.607830 H          1 MOL1         0.0832
       3    H2      21.757183   20.020225   21.852368 H          1 MOL1         0.0832
       4    C2      21.407727   19.751845   23.997415 C.3        1 MOL1        -0.1685
       5    H3      21.305961   18.915790   24.702566 H          1 MOL1         0.0832
       6    H4      22.273541   20.333098   24.342483 H          1 MOL1         0.0832
       7    C3      20.155979   20.652510   24.081968 C.3        1 MOL1        -0.1685
       8    H5      20.344144   21.591117   23.543915 H          1 MOL1         0.0832
       9    H6      20.015792   20.939135   25.132834 H          1 MOL1         0.0832
      10    C4      18.840353   20.003296   23.573208 C.3        1 MOL1        -0.1761
      11    H7      18.691063   19.028151   24.053896 H          1 MOL1         0.0832
      12    H8      18.007051   20.631675   23.912810 H          1 MOL1         0.0832
      13    C5      18.705407   19.858051   22.035442 C.3        1 MOL1         0.1218
      14    H9      17.638079   19.695389   21.826563 H          1 MOL1         0.0789
      15    C6      19.456502   18.659007   21.400391 C.3        1 MOL1        -0.1761
      16    H10     18.746372   17.827526   21.303354 H          1 MOL1         0.0832
      17    H11     19.738897   18.918124   20.371516 H          1 MOL1         0.0832
      18    C7      20.707869   18.119421   22.136479 C.3        1 MOL1        -0.1685
      19    H12     20.400662   17.516009   23.001310 H          1 MOL1         0.0832
      20    H13     21.221385   17.423277   21.459454 H          1 MOL1         0.0832
      21    O1      19.092627   21.065464   21.384954 O.3        1 MOL1        -0.5509
      22    H14     18.949318   20.928767   20.426472 H          1 MOL1         0.3779
@<TRIPOS>BOND
    1     1     2    1
    2     1     3    1
    3     1     4    1
    4     4     5    1
    5     4     6    1
    6     4     7    1
    7     7     8    1
    8     7     9    1
    9     7    10    1
   10    10    11    1
   11    10    12    1
   12    10    13    1
   13    13    14    1
   14    13    15    1
   15    15    16    1
   16    15    17    1
   17     1    18    1
   18    15    18    1
   19    18    19    1
   20    18    20    1
   21    13    21    1
   22    21    22    1
@<TRIPOS>SUBSTRUCTURE
       1 MOL1            1 RESIDUE      1      MOL     
@<SCITEGIC>MOL_PROPERTY
VConf Rank
SciTegic.value.IntegerValue
646

@<SCITEGIC>MOL_PROPERTY
Conf_Id
SciTegic.value.IntegerValue
104

@<SCITEGIC>MOL_PROPERTY
Delta U+W
SciTegic.value.DoubleValue
-1.172

@<SCITEGIC>MOL_PROPERTY
U+W
SciTegic.value.DoubleValue
5.252

@<SCITEGIC>MOL_PROPERTY
Grad RMS
SciTegic.value.DoubleValue
0.000000

@<SCITEGIC>MOL_PROPERTY
U
SciTegic.value.DoubleValue
7.482

@<SCITEGIC>MOL_PROPERTY
W
SciTegic.value.DoubleValue
-2.230

@<SCITEGIC>MOL_PROPERTY
W(PB)
SciTegic.value.DoubleValue
-4.220

@<SCITEGIC>MOL_PROPERTY
W(SA)
SciTegic.value.DoubleValue
1.990

@<SCITEGIC>MOL_PROPERTY
Valence
SciTegic.value.DoubleValue
12.309

@<SCITEGIC>MOL_PROPERTY
Coulomb
SciTegic.value.DoubleValue
-7.084

@<SCITEGIC>MOL_PROPERTY
VdW
SciTegic.value.DoubleValue
2.258

@<SCITEGIC>MOL_PROPERTY
VdW6
SciTegic.value.DoubleValue
-9.770

@<SCITEGIC>MOL_PROPERTY
VdW12
SciTegic.value.DoubleValue
12.028

@<SCITEGIC>MOL_PROPERTY
Bond
SciTegic.value.DoubleValue
0.284

@<SCITEGIC>MOL_PROPERTY
Angle
SciTegic.value.DoubleValue
3.491

@<SCITEGIC>MOL_PROPERTY
Pdih
SciTegic.value.DoubleValue
8.535

@<SCITEGIC>MOL_PROPERTY
Idih
SciTegic.value.DoubleValue
0.000

@<SCITEGIC>MOL_PROPERTY
Tether
SciTegic.value.DoubleValue
0.000

@<TRIPOS>MOLECULE
guest-5_confgen4.mol2 : confsearch ligand conformer 647
          22          22           1
SMALL
USER_CHARGES
 
@<TRIPOS>ATOM
       1    C1      21.355814   19.513539   21.653502 C.3        1 MOL1        -0.1685
       2    H1      21.322097   18.417620   21.587873 H          1 MOL1         0.0832
       3    H2      22.213656   19.826550   21.042707 H          1 MOL1         0.0832
       4    C2      21.617613   19.971901   23.106378 C.3        1 MOL1        -0.1685
       5    H3      22.691292   19.871832   23.317207 H          1 MOL1         0.0832
       6    H4      21.410598   21.046722   23.191486 H          1 MOL1         0.0832
       7    C3      20.846850   19.196132   24.204458 C.3        1 MOL1        -0.1685
       8    H5      20.742587   19.848126   25.082722 H          1 MOL1         0.0832
       9    H6      21.470301   18.355479   24.538436 H          1 MOL1         0.0832
      10    C4      19.453681   18.623896   23.826531 C.3        1 MOL1        -0.1761
      11    H7      19.589706   17.699037   23.251129 H          1 MOL1         0.0832
      12    H8      18.951609   18.315247   24.752631 H          1 MOL1         0.0832
      13    C5      18.496542   19.556153   23.048866 C.3        1 MOL1         0.1218
      14    H9      17.474951   19.181944   23.207615 H          1 MOL1         0.0789
      15    C6      18.747374   19.537058   21.524075 C.3        1 MOL1        -0.1761
      16    H10     18.677140   18.500632   21.169181 H          1 MOL1         0.0832
      17    H11     17.923567   20.073233   21.035093 H          1 MOL1         0.0832
      18    C7      20.085536   20.145086   21.035795 C.3        1 MOL1        -0.1685
      19    H12     20.133626   20.020186   19.945474 H          1 MOL1         0.0832
      20    H13     20.086830   21.229787   21.208711 H          1 MOL1         0.0832
      21    O1      18.583404   20.883933   23.542450 O.3        1 MOL1        -0.5509
      22    H14     19.528936   21.113429   23.444539 H          1 MOL1         0.3779
@<TRIPOS>BOND
    1     1     2    1
    2     1     3    1
    3     1     4    1
    4     4     5    1
    5     4     6    1
    6     4     7    1
    7     7     8    1
    8     7     9    1
    9     7    10    1
   10    10    11    1
   11    10    12    1
   12    10    13    1
   13    13    14    1
   14    13    15    1
   15    15    16    1
   16    15    17    1
   17     1    18    1
   18    15    18    1
   19    18    19    1
   20    18    20    1
   21    13    21    1
   22    21    22    1
@<TRIPOS>SUBSTRUCTURE
       1 MOL1            1 RESIDUE      1      MOL     
@<SCITEGIC>MOL_PROPERTY
VConf Rank
SciTegic.value.IntegerValue
647

@<SCITEGIC>MOL_PROPERTY
Conf_Id
SciTegic.value.IntegerValue
99

@<SCITEGIC>MOL_PROPERTY
Delta U+W
SciTegic.value.DoubleValue
-3.852

@<SCITEGIC>MOL_PROPERTY
U+W
SciTegic.value.DoubleValue
2.572

@<SCITEGIC>MOL_PROPERTY
Grad RMS
SciTegic.value.DoubleValue
0.000000

@<SCITEGIC>MOL_PROPERTY
U
SciTegic.value.DoubleValue
3.922

@<SCITEGIC>MOL_PROPERTY
W
SciTegic.value.DoubleValue
-1.350

@<SCITEGIC>MOL_PROPERTY
W(PB)
SciTegic.value.DoubleValue
-3.345

@<SCITEGIC>MOL_PROPERTY
W(SA)
SciTegic.value.DoubleValue
1.995

@<SCITEGIC>MOL_PROPERTY
Valence
SciTegic.value.DoubleValue
12.571

@<SCITEGIC>MOL_PROPERTY
Coulomb
SciTegic.value.DoubleValue
-10.581

@<SCITEGIC>MOL_PROPERTY
VdW
SciTegic.value.DoubleValue
1.932

@<SCITEGIC>MOL_PROPERTY
VdW6
SciTegic.value.DoubleValue
-10.483

@<SCITEGIC>MOL_PROPERTY
VdW12
SciTegic.value.DoubleValue
12.415

@<SCITEGIC>MOL_PROPERTY
Bond
SciTegic.value.DoubleValue
0.268

@<SCITEGIC>MOL_PROPERTY
Angle
SciTegic.value.DoubleValue
3.728

@<SCITEGIC>MOL_PROPERTY
Pdih
SciTegic.value.DoubleValue
8.575

@<SCITEGIC>MOL_PROPERTY
Idih
SciTegic.value.DoubleValue
0.000

@<SCITEGIC>MOL_PROPERTY
Tether
SciTegic.value.DoubleValue
0.000

@<TRIPOS>MOLECULE
guest-5_confgen4.mol2 : confsearch ligand conformer 648
          22          22           1
SMALL
USER_CHARGES
 
@<TRIPOS>ATOM
       1    C1      18.546349   20.059753   23.151551 C.3        1 MOL1        -0.1685
       2    H1      17.864164   20.706241   23.720733 H          1 MOL1         0.0832
       3    H2      17.890769   19.374916   22.597233 H          1 MOL1         0.0832
       4    C2      19.412965   19.264677   24.171690 C.3        1 MOL1        -0.1685
       5    H3      19.105764   19.566911   25.182418 H          1 MOL1         0.0832
       6    H4      19.178765   18.193332   24.113167 H          1 MOL1         0.0832
       7    C3      20.945928   19.467430   24.063683 C.3        1 MOL1        -0.1685
       8    H5      21.418199   19.015411   24.946499 H          1 MOL1         0.0832
       9    H6      21.184484   20.535528   24.140017 H          1 MOL1         0.0832
      10    C4      21.625268   18.867125   22.801557 C.3        1 MOL1        -0.1761
      11    H7      22.575474   19.392513   22.640876 H          1 MOL1         0.0832
      12    H8      21.902140   17.826789   23.018443 H          1 MOL1         0.0832
      13    C5      20.832113   18.871064   21.471502 C.3        1 MOL1         0.1218
      14    H9      21.546567   18.625056   20.672871 H          1 MOL1         0.0789
      15    C6      20.160981   20.210032   21.077942 C.3        1 MOL1        -0.1761
      16    H10     20.938078   20.894071   20.713317 H          1 MOL1         0.0832
      17    H11     19.516411   20.014547   20.210582 H          1 MOL1         0.0832
      18    C7      19.323401   20.955859   22.153583 C.3        1 MOL1        -0.1685
      19    H12     19.965809   21.653546   22.705046 H          1 MOL1         0.0832
      20    H13     18.602039   21.598957   21.631292 H          1 MOL1         0.0832
      21    O1      19.858433   17.839246   21.494751 O.3        1 MOL1        -0.5509
      22    H14     19.251772   18.102898   22.215433 H          1 MOL1         0.3779
@<TRIPOS>BOND
    1     1     2    1
    2     1     3    1
    3     1     4    1
    4     4     5    1
    5     4     6    1
    6     4     7    1
    7     7     8    1
    8     7     9    1
    9     7    10    1
   10    10    11    1
   11    10    12    1
   12    10    13    1
   13    13    14    1
   14    13    15    1
   15    15    16    1
   16    15    17    1
   17     1    18    1
   18    15    18    1
   19    18    19    1
   20    18    20    1
   21    13    21    1
   22    21    22    1
@<TRIPOS>SUBSTRUCTURE
       1 MOL1            1 RESIDUE      1      MOL     
@<SCITEGIC>MOL_PROPERTY
VConf Rank
SciTegic.value.IntegerValue
648

@<SCITEGIC>MOL_PROPERTY
Conf_Id
SciTegic.value.IntegerValue
98

@<SCITEGIC>MOL_PROPERTY
Delta U+W
SciTegic.value.DoubleValue
0.930

@<SCITEGIC>MOL_PROPERTY
U+W
SciTegic.value.DoubleValue
7.353

@<SCITEGIC>MOL_PROPERTY
Grad RMS
SciTegic.value.DoubleValue
0.000000

@<SCITEGIC>MOL_PROPERTY
U
SciTegic.value.DoubleValue
8.455

@<SCITEGIC>MOL_PROPERTY
W
SciTegic.value.DoubleValue
-1.102

@<SCITEGIC>MOL_PROPERTY
W(PB)
SciTegic.value.DoubleValue
-3.101

@<SCITEGIC>MOL_PROPERTY
W(SA)
SciTegic.value.DoubleValue
2.000

@<SCITEGIC>MOL_PROPERTY
Valence
SciTegic.value.DoubleValue
15.601

@<SCITEGIC>MOL_PROPERTY
Coulomb
SciTegic.value.DoubleValue
-10.573

@<SCITEGIC>MOL_PROPERTY
VdW
SciTegic.value.DoubleValue
3.427

@<SCITEGIC>MOL_PROPERTY
VdW6
SciTegic.value.DoubleValue
-11.360

@<SCITEGIC>MOL_PROPERTY
VdW12
SciTegic.value.DoubleValue
14.787

@<SCITEGIC>MOL_PROPERTY
Bond
SciTegic.value.DoubleValue
0.471

@<SCITEGIC>MOL_PROPERTY
Angle
SciTegic.value.DoubleValue
5.445

@<SCITEGIC>MOL_PROPERTY
Pdih
SciTegic.value.DoubleValue
9.685

@<SCITEGIC>MOL_PROPERTY
Idih
SciTegic.value.DoubleValue
0.000

@<SCITEGIC>MOL_PROPERTY
Tether
SciTegic.value.DoubleValue
0.000

@<TRIPOS>MOLECULE
guest-5_confgen4.mol2 : confsearch ligand conformer 649
          22          22           1
SMALL
USER_CHARGES
 
@<TRIPOS>ATOM
       1    C1      20.729695   20.299756   24.018118 C.3        1 MOL1        -0.1685
       2    H1      21.209175   19.338103   24.241955 H          1 MOL1         0.0832
       3    H2      21.110913   20.992715   24.780478 H          1 MOL1         0.0832
       4    C2      19.194691   20.172531   24.190556 C.3        1 MOL1        -0.1685
       5    H3      19.002757   19.866885   25.228158 H          1 MOL1         0.0832
       6    H4      18.729142   21.161394   24.080838 H          1 MOL1         0.0832
       7    C3      18.479272   19.164111   23.249329 C.3        1 MOL1        -0.1685
       8    H5      17.960592   19.702439   22.445469 H          1 MOL1         0.0832
       9    H6      17.680898   18.670337   23.819786 H          1 MOL1         0.0832
      10    C4      19.397112   18.074824   22.633917 C.3        1 MOL1        -0.1761
      11    H7      19.960525   17.583297   23.436782 H          1 MOL1         0.0832
      12    H8      18.760496   17.285223   22.212445 H          1 MOL1         0.0832
      13    C5      20.389097   18.561527   21.537123 C.3        1 MOL1         0.1218
      14    H9      21.375103   18.126254   21.754832 H          1 MOL1         0.0789
      15    C6      20.556332   20.096367   21.408450 C.3        1 MOL1        -0.1761
      16    H10     21.178892   20.313772   20.530833 H          1 MOL1         0.0832
      17    H11     19.585128   20.556448   21.190096 H          1 MOL1         0.0832
      18    C7      21.197442   20.799399   22.630959 C.3        1 MOL1        -0.1685
      19    H12     22.288443   20.683136   22.576063 H          1 MOL1         0.0832
      20    H13     21.005079   21.878082   22.552779 H          1 MOL1         0.0832
      21    O1      19.942122   18.074256   20.276981 O.3        1 MOL1        -0.5509
      22    H14     20.612347   18.344947   19.615390 H          1 MOL1         0.3779
@<TRIPOS>BOND
    1     1     2    1
    2     1     3    1
    3     1     4    1
    4     4     5    1
    5     4     6    1
    6     4     7    1
    7     7     8    1
    8     7     9    1
    9     7    10    1
   10    10    11    1
   11    10    12    1
   12    10    13    1
   13    13    14    1
   14    13    15    1
   15    15    16    1
   16    15    17    1
   17     1    18    1
   18    15    18    1
   19    18    19    1
   20    18    20    1
   21    13    21    1
   22    21    22    1
@<TRIPOS>SUBSTRUCTURE
       1 MOL1            1 RESIDUE      1      MOL     
@<SCITEGIC>MOL_PROPERTY
VConf Rank
SciTegic.value.IntegerValue
649

@<SCITEGIC>MOL_PROPERTY
Conf_Id
SciTegic.value.IntegerValue
141

@<SCITEGIC>MOL_PROPERTY
Delta U+W
SciTegic.value.DoubleValue
0.000

@<SCITEGIC>MOL_PROPERTY
U+W
SciTegic.value.DoubleValue
6.423

@<SCITEGIC>MOL_PROPERTY
Grad RMS
SciTegic.value.DoubleValue
0.000000

@<SCITEGIC>MOL_PROPERTY
U
SciTegic.value.DoubleValue
8.781

@<SCITEGIC>MOL_PROPERTY
W
SciTegic.value.DoubleValue
-2.358

@<SCITEGIC>MOL_PROPERTY
W(PB)
SciTegic.value.DoubleValue
-4.373

@<SCITEGIC>MOL_PROPERTY
W(SA)
SciTegic.value.DoubleValue
2.015

@<SCITEGIC>MOL_PROPERTY
Valence
SciTegic.value.DoubleValue
13.328

@<SCITEGIC>MOL_PROPERTY
Coulomb
SciTegic.value.DoubleValue
-8.387

@<SCITEGIC>MOL_PROPERTY
VdW
SciTegic.value.DoubleValue
3.840

@<SCITEGIC>MOL_PROPERTY
VdW6
SciTegic.value.DoubleValue
-9.744

@<SCITEGIC>MOL_PROPERTY
VdW12
SciTegic.value.DoubleValue
13.584

@<SCITEGIC>MOL_PROPERTY
Bond
SciTegic.value.DoubleValue
0.436

@<SCITEGIC>MOL_PROPERTY
Angle
SciTegic.value.DoubleValue
3.478

@<SCITEGIC>MOL_PROPERTY
Pdih
SciTegic.value.DoubleValue
9.415

@<SCITEGIC>MOL_PROPERTY
Idih
SciTegic.value.DoubleValue
0.000

@<SCITEGIC>MOL_PROPERTY
Tether
SciTegic.value.DoubleValue
0.000

@<TRIPOS>MOLECULE
guest-5_confgen4.mol2 : confsearch ligand conformer 650
          22          22           1
SMALL
USER_CHARGES
 
@<TRIPOS>ATOM
       1    C1      19.309692   20.981991   21.808629 C.3        1 MOL1        -0.1685
       2    H1      20.024121   20.799117   20.994530 H          1 MOL1         0.0832
       3    H2      18.683766   21.822956   21.480147 H          1 MOL1         0.0832
       4    C2      20.042244   21.418347   23.100378 C.3        1 MOL1        -0.1685
       5    H3      20.470489   22.417119   22.939396 H          1 MOL1         0.0832
       6    H4      19.311130   21.534481   23.912083 H          1 MOL1         0.0832
       7    C3      21.176816   20.476495   23.565126 C.3        1 MOL1        -0.1685
       8    H5      21.567751   20.856055   24.519029 H          1 MOL1         0.0832
       9    H6      22.012803   20.534034   22.854650 H          1 MOL1         0.0832
      10    C4      20.762151   18.996870   23.754709 C.3        1 MOL1        -0.1761
      11    H7      21.572215   18.492041   24.297321 H          1 MOL1         0.0832
      12    H8      19.873333   18.922739   24.394633 H          1 MOL1         0.0832
      13    C5      20.525793   18.267043   22.413398 C.3        1 MOL1         0.1218
      14    H9      21.213456   18.688724   21.666304 H          1 MOL1         0.0789
      15    C6      19.084970   18.381503   21.865472 C.3        1 MOL1        -0.1761
      16    H10     19.114350   18.121379   20.799488 H          1 MOL1         0.0832
      17    H11     18.453005   17.620968   22.343297 H          1 MOL1         0.0832
      18    C7      18.389999   19.757112   22.022824 C.3        1 MOL1        -0.1685
      19    H12     17.561300   19.803006   21.303118 H          1 MOL1         0.0832
      20    H13     17.921856   19.820955   23.014528 H          1 MOL1         0.0832
      21    O1      20.824187   16.886773   22.583790 O.3        1 MOL1        -0.5509
      22    H14     21.763632   16.832802   22.857923 H          1 MOL1         0.3779
@<TRIPOS>BOND
    1     1     2    1
    2     1     3    1
    3     1     4    1
    4     4     5    1
    5     4     6    1
    6     4     7    1
    7     7     8    1
    8     7     9    1
    9     7    10    1
   10    10    11    1
   11    10    12    1
   12    10    13    1
   13    13    14    1
   14    13    15    1
   15    15    16    1
   16    15    17    1
   17     1    18    1
   18    15    18    1
   19    18    19    1
   20    18    20    1
   21    13    21    1
   22    21    22    1
@<TRIPOS>SUBSTRUCTURE
       1 MOL1            1 RESIDUE      1      MOL     
@<SCITEGIC>MOL_PROPERTY
VConf Rank
SciTegic.value.IntegerValue
650

@<SCITEGIC>MOL_PROPERTY
Conf_Id
SciTegic.value.IntegerValue
144

@<SCITEGIC>MOL_PROPERTY
Delta U+W
SciTegic.value.DoubleValue
-3.291

@<SCITEGIC>MOL_PROPERTY
U+W
SciTegic.value.DoubleValue
3.132

@<SCITEGIC>MOL_PROPERTY
Grad RMS
SciTegic.value.DoubleValue
0.000000

@<SCITEGIC>MOL_PROPERTY
U
SciTegic.value.DoubleValue
5.411

@<SCITEGIC>MOL_PROPERTY
W
SciTegic.value.DoubleValue
-2.279

@<SCITEGIC>MOL_PROPERTY
W(PB)
SciTegic.value.DoubleValue
-4.300

@<SCITEGIC>MOL_PROPERTY
W(SA)
SciTegic.value.DoubleValue
2.021

@<SCITEGIC>MOL_PROPERTY
Valence
SciTegic.value.DoubleValue
11.909

@<SCITEGIC>MOL_PROPERTY
Coulomb
SciTegic.value.DoubleValue
-8.733

@<SCITEGIC>MOL_PROPERTY
VdW
SciTegic.value.DoubleValue
2.236

@<SCITEGIC>MOL_PROPERTY
VdW6
SciTegic.value.DoubleValue
-8.936

@<SCITEGIC>MOL_PROPERTY
VdW12
SciTegic.value.DoubleValue
11.172

@<SCITEGIC>MOL_PROPERTY
Bond
SciTegic.value.DoubleValue
0.223

@<SCITEGIC>MOL_PROPERTY
Angle
SciTegic.value.DoubleValue
2.457

@<SCITEGIC>MOL_PROPERTY
Pdih
SciTegic.value.DoubleValue
9.228

@<SCITEGIC>MOL_PROPERTY
Idih
SciTegic.value.DoubleValue
0.000

@<SCITEGIC>MOL_PROPERTY
Tether
SciTegic.value.DoubleValue
0.000

@<TRIPOS>MOLECULE
guest-5_confgen4.mol2 : confsearch ligand conformer 651
          22          22           1
SMALL
USER_CHARGES
 
@<TRIPOS>ATOM
       1    C1      18.650881   20.694651   22.457578 C.3        1 MOL1        -0.1685
       2    H1      18.010015   21.520202   22.118984 H          1 MOL1         0.0832
       3    H2      18.102785   20.197840   23.269644 H          1 MOL1         0.0832
       4    C2      19.976112   21.299835   22.976799 C.3        1 MOL1        -0.1685
       5    H3      20.646368   21.494259   22.128429 H          1 MOL1         0.0832
       6    H4      19.768487   22.284552   23.417505 H          1 MOL1         0.0832
       7    C3      20.714924   20.448984   24.037993 C.3        1 MOL1        -0.1685
       8    H5      20.284288   20.658117   25.026796 H          1 MOL1         0.0832
       9    H6      21.757025   20.793312   24.087803 H          1 MOL1         0.0832
      10    C4      20.700537   18.915823   23.820390 C.3        1 MOL1        -0.1761
      11    H7      21.509686   18.483317   24.424282 H          1 MOL1         0.0832
      12    H8      19.769853   18.502350   24.229978 H          1 MOL1         0.0832
      13    C5      20.856541   18.464937   22.350710 C.3        1 MOL1         0.1218
      14    H9      21.520871   19.161895   21.820254 H          1 MOL1         0.0789
      15    C6      19.502125   18.375356   21.611447 C.3        1 MOL1        -0.1761
      16    H10     19.647946   17.817749   20.676599 H          1 MOL1         0.0832
      17    H11     18.796459   17.784679   22.209965 H          1 MOL1         0.0832
      18    C7      18.854332   19.735725   21.260056 C.3        1 MOL1        -0.1685
      19    H12     19.455730   20.237008   20.489368 H          1 MOL1         0.0832
      20    H13     17.877209   19.541079   20.797313 H          1 MOL1         0.0832
      21    O1      21.445604   17.171450   22.340332 O.3        1 MOL1        -0.5509
      22    H14     20.828296   16.582508   22.821204 H          1 MOL1         0.3779
@<TRIPOS>BOND
    1     1     2    1
    2     1     3    1
    3     1     4    1
    4     4     5    1
    5     4     6    1
    6     4     7    1
    7     7     8    1
    8     7     9    1
    9     7    10    1
   10    10    11    1
   11    10    12    1
   12    10    13    1
   13    13    14    1
   14    13    15    1
   15    15    16    1
   16    15    17    1
   17     1    18    1
   18    15    18    1
   19    18    19    1
   20    18    20    1
   21    13    21    1
   22    21    22    1
@<TRIPOS>SUBSTRUCTURE
       1 MOL1            1 RESIDUE      1      MOL     
@<SCITEGIC>MOL_PROPERTY
VConf Rank
SciTegic.value.IntegerValue
651

@<SCITEGIC>MOL_PROPERTY
Conf_Id
SciTegic.value.IntegerValue
76

@<SCITEGIC>MOL_PROPERTY
Delta U+W
SciTegic.value.DoubleValue
-3.175

@<SCITEGIC>MOL_PROPERTY
U+W
SciTegic.value.DoubleValue
3.248

@<SCITEGIC>MOL_PROPERTY
Grad RMS
SciTegic.value.DoubleValue
0.000000

@<SCITEGIC>MOL_PROPERTY
U
SciTegic.value.DoubleValue
5.336

@<SCITEGIC>MOL_PROPERTY
W
SciTegic.value.DoubleValue
-2.088

@<SCITEGIC>MOL_PROPERTY
W(PB)
SciTegic.value.DoubleValue
-4.098

@<SCITEGIC>MOL_PROPERTY
W(SA)
SciTegic.value.DoubleValue
2.010

@<SCITEGIC>MOL_PROPERTY
Valence
SciTegic.value.DoubleValue
12.390

@<SCITEGIC>MOL_PROPERTY
Coulomb
SciTegic.value.DoubleValue
-9.270

@<SCITEGIC>MOL_PROPERTY
VdW
SciTegic.value.DoubleValue
2.216

@<SCITEGIC>MOL_PROPERTY
VdW6
SciTegic.value.DoubleValue
-8.967

@<SCITEGIC>MOL_PROPERTY
VdW12
SciTegic.value.DoubleValue
11.183

@<SCITEGIC>MOL_PROPERTY
Bond
SciTegic.value.DoubleValue
0.218

@<SCITEGIC>MOL_PROPERTY
Angle
SciTegic.value.DoubleValue
2.426

@<SCITEGIC>MOL_PROPERTY
Pdih
SciTegic.value.DoubleValue
9.745

@<SCITEGIC>MOL_PROPERTY
Idih
SciTegic.value.DoubleValue
0.000

@<SCITEGIC>MOL_PROPERTY
Tether
SciTegic.value.DoubleValue
0.000

@<TRIPOS>MOLECULE
guest-5_confgen4.mol2 : confsearch ligand conformer 652
          22          22           1
SMALL
USER_CHARGES
 
@<TRIPOS>ATOM
       1    C1      19.443131   17.796592   22.844649 C.3        1 MOL1        -0.1685
       2    H1      19.522140   16.994500   22.098198 H          1 MOL1         0.0832
       3    H2      18.995660   17.332824   23.734314 H          1 MOL1         0.0832
       4    C2      18.473758   18.872137   22.298579 C.3        1 MOL1        -0.1685
       5    H3      18.607932   18.969228   21.212738 H          1 MOL1         0.0832
       6    H4      17.447472   18.505171   22.435898 H          1 MOL1         0.0832
       7    C3      18.601866   20.264467   22.959298 C.3        1 MOL1        -0.1685
       8    H5      18.810358   20.172502   24.033965 H          1 MOL1         0.0832
       9    H6      17.630296   20.770434   22.879665 H          1 MOL1         0.0832
      10    C4      19.659324   21.161884   22.267557 C.3        1 MOL1        -0.1761
      11    H7      19.468404   21.176914   21.186892 H          1 MOL1         0.0832
      12    H8      19.516445   22.196354   22.606486 H          1 MOL1         0.0832
      13    C5      21.138569   20.782520   22.506335 C.3        1 MOL1         0.1218
      14    H9      21.737618   21.390291   21.812900 H          1 MOL1         0.0789
      15    C6      21.490925   19.298742   22.232959 C.3        1 MOL1        -0.1761
      16    H10     21.221731   19.036347   21.201668 H          1 MOL1         0.0832
      17    H11     22.582967   19.202399   22.287278 H          1 MOL1         0.0832
      18    C7      20.864279   18.279897   23.220120 C.3        1 MOL1        -0.1685
      19    H12     21.515845   17.397585   23.278522 H          1 MOL1         0.0832
      20    H13     20.850240   18.698403   24.235056 H          1 MOL1         0.0832
      21    O1      21.505425   21.135877   23.836214 O.3        1 MOL1        -0.5509
      22    H14     22.427834   20.832743   23.960937 H          1 MOL1         0.3779
@<TRIPOS>BOND
    1     1     2    1
    2     1     3    1
    3     1     4    1
    4     4     5    1
    5     4     6    1
    6     4     7    1
    7     7     8    1
    8     7     9    1
    9     7    10    1
   10    10    11    1
   11    10    12    1
   12    10    13    1
   13    13    14    1
   14    13    15    1
   15    15    16    1
   16    15    17    1
   17     1    18    1
   18    15    18    1
   19    18    19    1
   20    18    20    1
   21    13    21    1
   22    21    22    1
@<TRIPOS>SUBSTRUCTURE
       1 MOL1            1 RESIDUE      1      MOL     
@<SCITEGIC>MOL_PROPERTY
VConf Rank
SciTegic.value.IntegerValue
652

@<SCITEGIC>MOL_PROPERTY
Conf_Id
SciTegic.value.IntegerValue
95

@<SCITEGIC>MOL_PROPERTY
Delta U+W
SciTegic.value.DoubleValue
-2.289

@<SCITEGIC>MOL_PROPERTY
U+W
SciTegic.value.DoubleValue
4.134

@<SCITEGIC>MOL_PROPERTY
Grad RMS
SciTegic.value.DoubleValue
0.000000

@<SCITEGIC>MOL_PROPERTY
U
SciTegic.value.DoubleValue
6.373

@<SCITEGIC>MOL_PROPERTY
W
SciTegic.value.DoubleValue
-2.240

@<SCITEGIC>MOL_PROPERTY
W(PB)
SciTegic.value.DoubleValue
-4.254

@<SCITEGIC>MOL_PROPERTY
W(SA)
SciTegic.value.DoubleValue
2.015

@<SCITEGIC>MOL_PROPERTY
Valence
SciTegic.value.DoubleValue
12.093

@<SCITEGIC>MOL_PROPERTY
Coulomb
SciTegic.value.DoubleValue
-8.058

@<SCITEGIC>MOL_PROPERTY
VdW
SciTegic.value.DoubleValue
2.339

@<SCITEGIC>MOL_PROPERTY
VdW6
SciTegic.value.DoubleValue
-9.683

@<SCITEGIC>MOL_PROPERTY
VdW12
SciTegic.value.DoubleValue
12.022

@<SCITEGIC>MOL_PROPERTY
Bond
SciTegic.value.DoubleValue
0.268

@<SCITEGIC>MOL_PROPERTY
Angle
SciTegic.value.DoubleValue
3.005

@<SCITEGIC>MOL_PROPERTY
Pdih
SciTegic.value.DoubleValue
8.820

@<SCITEGIC>MOL_PROPERTY
Idih
SciTegic.value.DoubleValue
0.000

@<SCITEGIC>MOL_PROPERTY
Tether
SciTegic.value.DoubleValue
0.000

@<TRIPOS>MOLECULE
guest-5_confgen4.mol2 : confsearch ligand conformer 653
          22          22           1
SMALL
USER_CHARGES
 
@<TRIPOS>ATOM
       1    C1      19.408436   19.955432   24.479309 C.3        1 MOL1        -0.1685
       2    H1      19.913814   19.736423   25.429773 H          1 MOL1         0.0832
       3    H2      18.463060   20.444875   24.750418 H          1 MOL1         0.0832
       4    C2      19.094099   18.612592   23.777668 C.3        1 MOL1        -0.1685
       5    H3      19.909431   17.901294   23.966795 H          1 MOL1         0.0832
       6    H4      18.207753   18.177508   24.259220 H          1 MOL1         0.0832
       7    C3      18.840474   18.712157   22.255407 C.3        1 MOL1        -0.1685
       8    H5      18.288231   19.628999   22.007925 H          1 MOL1         0.0832
       9    H6      18.190369   17.876382   21.963398 H          1 MOL1         0.0832
      10    C4      20.144357   18.608908   21.424421 C.3        1 MOL1        -0.1761
      11    H7      20.712745   17.730371   21.756087 H          1 MOL1         0.0832
      12    H8      19.878983   18.405971   20.378775 H          1 MOL1         0.0832
      13    C5      21.075313   19.842516   21.460044 C.3        1 MOL1         0.1218
      14    H9      22.016257   19.544413   20.975421 H          1 MOL1         0.0789
      15    C6      21.436457   20.353347   22.877422 C.3        1 MOL1        -0.1761
      16    H10     21.906103   19.548565   23.457290 H          1 MOL1         0.0832
      17    H11     22.207346   21.125418   22.757146 H          1 MOL1         0.0832
      18    C7      20.258480   20.969071   23.676604 C.3        1 MOL1        -0.1685
      19    H12     20.659965   21.707277   24.383766 H          1 MOL1         0.0832
      20    H13     19.607031   21.539334   23.001301 H          1 MOL1         0.0832
      21    O1      20.495459   20.894011   20.693871 O.3        1 MOL1        -0.5509
      22    H14     20.272173   20.514951   19.819432 H          1 MOL1         0.3779
@<TRIPOS>BOND
    1     1     2    1
    2     1     3    1
    3     1     4    1
    4     4     5    1
    5     4     6    1
    6     4     7    1
    7     7     8    1
    8     7     9    1
    9     7    10    1
   10    10    11    1
   11    10    12    1
   12    10    13    1
   13    13    14    1
   14    13    15    1
   15    15    16    1
   16    15    17    1
   17     1    18    1
   18    15    18    1
   19    18    19    1
   20    18    20    1
   21    13    21    1
   22    21    22    1
@<TRIPOS>SUBSTRUCTURE
       1 MOL1            1 RESIDUE      1      MOL     
@<SCITEGIC>MOL_PROPERTY
VConf Rank
SciTegic.value.IntegerValue
653

@<SCITEGIC>MOL_PROPERTY
Conf_Id
SciTegic.value.IntegerValue
41

@<SCITEGIC>MOL_PROPERTY
Delta U+W
SciTegic.value.DoubleValue
-2.114

@<SCITEGIC>MOL_PROPERTY
U+W
SciTegic.value.DoubleValue
4.310

@<SCITEGIC>MOL_PROPERTY
Grad RMS
SciTegic.value.DoubleValue
0.000000

@<SCITEGIC>MOL_PROPERTY
U
SciTegic.value.DoubleValue
6.598

@<SCITEGIC>MOL_PROPERTY
W
SciTegic.value.DoubleValue
-2.289

@<SCITEGIC>MOL_PROPERTY
W(PB)
SciTegic.value.DoubleValue
-4.294

@<SCITEGIC>MOL_PROPERTY
W(SA)
SciTegic.value.DoubleValue
2.005

@<SCITEGIC>MOL_PROPERTY
Valence
SciTegic.value.DoubleValue
12.082

@<SCITEGIC>MOL_PROPERTY
Coulomb
SciTegic.value.DoubleValue
-7.801

@<SCITEGIC>MOL_PROPERTY
VdW
SciTegic.value.DoubleValue
2.317

@<SCITEGIC>MOL_PROPERTY
VdW6
SciTegic.value.DoubleValue
-9.658

@<SCITEGIC>MOL_PROPERTY
VdW12
SciTegic.value.DoubleValue
11.975

@<SCITEGIC>MOL_PROPERTY
Bond
SciTegic.value.DoubleValue
0.267

@<SCITEGIC>MOL_PROPERTY
Angle
SciTegic.value.DoubleValue
3.051

@<SCITEGIC>MOL_PROPERTY
Pdih
SciTegic.value.DoubleValue
8.764

@<SCITEGIC>MOL_PROPERTY
Idih
SciTegic.value.DoubleValue
0.000

@<SCITEGIC>MOL_PROPERTY
Tether
SciTegic.value.DoubleValue
0.000

@<TRIPOS>MOLECULE
guest-5_confgen4.mol2 : confsearch ligand conformer 654
          22          22           1
SMALL
USER_CHARGES
 
@<TRIPOS>ATOM
       1    C1      20.074958   20.526836   21.374026 C.3        1 MOL1        -0.1685
       2    H1      19.859104   21.283502   20.607597 H          1 MOL1         0.0832
       3    H2      21.118930   20.221135   21.219603 H          1 MOL1         0.0832
       4    C2      19.117427   19.335660   21.146822 C.3        1 MOL1        -0.1685
       5    H3      18.086737   19.645577   21.366393 H          1 MOL1         0.0832
       6    H4      19.131988   19.072339   20.080516 H          1 MOL1         0.0832
       7    C3      19.459551   18.069460   21.962243 C.3        1 MOL1        -0.1685
       8    H5      20.399000   17.638624   21.591157 H          1 MOL1         0.0832
       9    H6      18.688437   17.315304   21.755464 H          1 MOL1         0.0832
      10    C4      19.540677   18.276242   23.499072 C.3        1 MOL1        -0.1761
      11    H7      18.633746   18.777636   23.860095 H          1 MOL1         0.0832
      12    H8      19.537380   17.284043   23.968234 H          1 MOL1         0.0832
      13    C5      20.796631   19.022573   24.018304 C.3        1 MOL1         0.1218
      14    H9      20.867459   18.809472   25.094802 H          1 MOL1         0.0789
      15    C6      20.768930   20.567493   23.885661 C.3        1 MOL1        -0.1761
      16    H10     20.418902   20.983085   24.839509 H          1 MOL1         0.0832
      17    H11     21.797116   20.935224   23.771302 H          1 MOL1         0.0832
      18    C7      19.896060   21.179984   22.762339 C.3        1 MOL1        -0.1685
      19    H12     18.837537   21.149508   23.053911 H          1 MOL1         0.0832
      20    H13     20.149163   22.246052   22.684137 H          1 MOL1         0.0832
      21    O1      21.972982   18.509048   23.399102 O.3        1 MOL1        -0.5509
      22    H14     22.731173   18.986833   23.792519 H          1 MOL1         0.3779
@<TRIPOS>BOND
    1     1     2    1
    2     1     3    1
    3     1     4    1
    4     4     5    1
    5     4     6    1
    6     4     7    1
    7     7     8    1
    8     7     9    1
    9     7    10    1
   10    10    11    1
   11    10    12    1
   12    10    13    1
   13    13    14    1
   14    13    15    1
   15    15    16    1
   16    15    17    1
   17     1    18    1
   18    15    18    1
   19    18    19    1
   20    18    20    1
   21    13    21    1
   22    21    22    1
@<TRIPOS>SUBSTRUCTURE
       1 MOL1            1 RESIDUE      1      MOL     
@<SCITEGIC>MOL_PROPERTY
VConf Rank
SciTegic.value.IntegerValue
654

@<SCITEGIC>MOL_PROPERTY
Conf_Id
SciTegic.value.IntegerValue
104

@<SCITEGIC>MOL_PROPERTY
Delta U+W
SciTegic.value.DoubleValue
-1.172

@<SCITEGIC>MOL_PROPERTY
U+W
SciTegic.value.DoubleValue
5.252

@<SCITEGIC>MOL_PROPERTY
Grad RMS
SciTegic.value.DoubleValue
0.000000

@<SCITEGIC>MOL_PROPERTY
U
SciTegic.value.DoubleValue
7.482

@<SCITEGIC>MOL_PROPERTY
W
SciTegic.value.DoubleValue
-2.230

@<SCITEGIC>MOL_PROPERTY
W(PB)
SciTegic.value.DoubleValue
-4.220

@<SCITEGIC>MOL_PROPERTY
W(SA)
SciTegic.value.DoubleValue
1.990

@<SCITEGIC>MOL_PROPERTY
Valence
SciTegic.value.DoubleValue
12.309

@<SCITEGIC>MOL_PROPERTY
Coulomb
SciTegic.value.DoubleValue
-7.084

@<SCITEGIC>MOL_PROPERTY
VdW
SciTegic.value.DoubleValue
2.258

@<SCITEGIC>MOL_PROPERTY
VdW6
SciTegic.value.DoubleValue
-9.770

@<SCITEGIC>MOL_PROPERTY
VdW12
SciTegic.value.DoubleValue
12.028

@<SCITEGIC>MOL_PROPERTY
Bond
SciTegic.value.DoubleValue
0.284

@<SCITEGIC>MOL_PROPERTY
Angle
SciTegic.value.DoubleValue
3.491

@<SCITEGIC>MOL_PROPERTY
Pdih
SciTegic.value.DoubleValue
8.535

@<SCITEGIC>MOL_PROPERTY
Idih
SciTegic.value.DoubleValue
0.000

@<SCITEGIC>MOL_PROPERTY
Tether
SciTegic.value.DoubleValue
0.000

@<TRIPOS>MOLECULE
guest-5_confgen4.mol2 : confsearch ligand conformer 655
          22          22           1
SMALL
USER_CHARGES
 
@<TRIPOS>ATOM
       1    C1      18.673653   18.764096   22.977493 C.3        1 MOL1        -0.1685
       2    H1      18.741734   18.928655   24.061361 H          1 MOL1         0.0832
       3    H2      17.770879   18.158181   22.820000 H          1 MOL1         0.0832
       4    C2      19.884243   17.950648   22.465379 C.3        1 MOL1        -0.1685
       5    H3      19.714240   16.889102   22.692244 H          1 MOL1         0.0832
       6    H4      19.921031   18.004339   21.369431 H          1 MOL1         0.0832
       7    C3      21.259280   18.346061   23.060858 C.3        1 MOL1        -0.1685
       8    H5      22.043092   18.060218   22.345841 H          1 MOL1         0.0832
       9    H6      21.441122   17.731476   23.953129 H          1 MOL1         0.0832
      10    C4      21.457931   19.831399   23.467687 C.3        1 MOL1        -0.1761
      11    H7      20.973913   20.005663   24.437385 H          1 MOL1         0.0832
      12    H8      22.528684   19.993136   23.647497 H          1 MOL1         0.0832
      13    C5      20.970661   20.906476   22.469310 C.3        1 MOL1         0.1218
      14    H9      21.516944   21.833637   22.694767 H          1 MOL1         0.0789
      15    C6      19.466236   21.226730   22.619016 C.3        1 MOL1        -0.1761
      16    H10     19.271679   21.523702   23.657773 H          1 MOL1         0.0832
      17    H11     19.243111   22.113509   22.011494 H          1 MOL1         0.0832
      18    C7      18.477274   20.101757   22.225086 C.3        1 MOL1        -0.1685
      19    H12     17.459496   20.463581   22.424893 H          1 MOL1         0.0832
      20    H13     18.521577   19.929617   21.141165 H          1 MOL1         0.0832
      21    O1      21.257216   20.514848   21.135637 O.3        1 MOL1        -0.5509
      22    H14     20.809712   19.650691   21.039414 H          1 MOL1         0.3779
@<TRIPOS>BOND
    1     1     2    1
    2     1     3    1
    3     1     4    1
    4     4     5    1
    5     4     6    1
    6     4     7    1
    7     7     8    1
    8     7     9    1
    9     7    10    1
   10    10    11    1
   11    10    12    1
   12    10    13    1
   13    13    14    1
   14    13    15    1
   15    15    16    1
   16    15    17    1
   17     1    18    1
   18    15    18    1
   19    18    19    1
   20    18    20    1
   21    13    21    1
   22    21    22    1
@<TRIPOS>SUBSTRUCTURE
       1 MOL1            1 RESIDUE      1      MOL     
@<SCITEGIC>MOL_PROPERTY
VConf Rank
SciTegic.value.IntegerValue
655

@<SCITEGIC>MOL_PROPERTY
Conf_Id
SciTegic.value.IntegerValue
99

@<SCITEGIC>MOL_PROPERTY
Delta U+W
SciTegic.value.DoubleValue
-3.852

@<SCITEGIC>MOL_PROPERTY
U+W
SciTegic.value.DoubleValue
2.572

@<SCITEGIC>MOL_PROPERTY
Grad RMS
SciTegic.value.DoubleValue
0.000000

@<SCITEGIC>MOL_PROPERTY
U
SciTegic.value.DoubleValue
3.922

@<SCITEGIC>MOL_PROPERTY
W
SciTegic.value.DoubleValue
-1.350

@<SCITEGIC>MOL_PROPERTY
W(PB)
SciTegic.value.DoubleValue
-3.345

@<SCITEGIC>MOL_PROPERTY
W(SA)
SciTegic.value.DoubleValue
1.995

@<SCITEGIC>MOL_PROPERTY
Valence
SciTegic.value.DoubleValue
12.571

@<SCITEGIC>MOL_PROPERTY
Coulomb
SciTegic.value.DoubleValue
-10.581

@<SCITEGIC>MOL_PROPERTY
VdW
SciTegic.value.DoubleValue
1.932

@<SCITEGIC>MOL_PROPERTY
VdW6
SciTegic.value.DoubleValue
-10.483

@<SCITEGIC>MOL_PROPERTY
VdW12
SciTegic.value.DoubleValue
12.415

@<SCITEGIC>MOL_PROPERTY
Bond
SciTegic.value.DoubleValue
0.268

@<SCITEGIC>MOL_PROPERTY
Angle
SciTegic.value.DoubleValue
3.728

@<SCITEGIC>MOL_PROPERTY
Pdih
SciTegic.value.DoubleValue
8.575

@<SCITEGIC>MOL_PROPERTY
Idih
SciTegic.value.DoubleValue
0.000

@<SCITEGIC>MOL_PROPERTY
Tether
SciTegic.value.DoubleValue
0.000

@<TRIPOS>MOLECULE
guest-5_confgen4.mol2 : confsearch ligand conformer 656
          22          22           1
SMALL
USER_CHARGES
 
@<TRIPOS>ATOM
       1    C1      19.793855   21.230888   22.805698 C.3        1 MOL1        -0.1685
       2    H1      20.068984   22.278312   22.619963 H          1 MOL1         0.0832
       3    H2      18.834578   21.280325   23.338049 H          1 MOL1         0.0832
       4    C2      20.885193   20.606192   23.723624 C.3        1 MOL1        -0.1685
       5    H3      21.632598   21.383274   23.935328 H          1 MOL1         0.0832
       6    H4      20.456393   20.351820   24.702133 H          1 MOL1         0.0832
       7    C3      21.632899   19.375935   23.149033 C.3        1 MOL1        -0.1685
       8    H5      22.492074   19.158498   23.798083 H          1 MOL1         0.0832
       9    H6      22.077805   19.632525   22.179606 H          1 MOL1         0.0832
      10    C4      20.797309   18.072692   23.014221 C.3        1 MOL1        -0.1761
      11    H7      21.280779   17.431162   22.266265 H          1 MOL1         0.0832
      12    H8      20.865159   17.517918   23.959535 H          1 MOL1         0.0832
      13    C5      19.296405   18.199395   22.654508 C.3        1 MOL1         0.1218
      14    H9      18.946361   17.192487   22.385470 H          1 MOL1         0.0789
      15    C6      18.953256   19.128047   21.463711 C.3        1 MOL1        -0.1761
      16    H10     19.218550   18.611168   20.532477 H          1 MOL1         0.0832
      17    H11     17.860954   19.237454   21.433665 H          1 MOL1         0.0832
      18    C7      19.589483   20.545409   21.430523 C.3        1 MOL1        -0.1685
      19    H12     20.542769   20.510817   20.888659 H          1 MOL1         0.0832
      20    H13     18.945492   21.188396   20.815243 H          1 MOL1         0.0832
      21    O1      18.564712   18.604757   23.800609 O.3        1 MOL1        -0.5509
      22    H14     18.910262   19.498429   23.997785 H          1 MOL1         0.3779
@<TRIPOS>BOND
    1     1     2    1
    2     1     3    1
    3     1     4    1
    4     4     5    1
    5     4     6    1
    6     4     7    1
    7     7     8    1
    8     7     9    1
    9     7    10    1
   10    10    11    1
   11    10    12    1
   12    10    13    1
   13    13    14    1
   14    13    15    1
   15    15    16    1
   16    15    17    1
   17     1    18    1
   18    15    18    1
   19    18    19    1
   20    18    20    1
   21    13    21    1
   22    21    22    1
@<TRIPOS>SUBSTRUCTURE
       1 MOL1            1 RESIDUE      1      MOL     
@<SCITEGIC>MOL_PROPERTY
VConf Rank
SciTegic.value.IntegerValue
656

@<SCITEGIC>MOL_PROPERTY
Conf_Id
SciTegic.value.IntegerValue
98

@<SCITEGIC>MOL_PROPERTY
Delta U+W
SciTegic.value.DoubleValue
0.930

@<SCITEGIC>MOL_PROPERTY
U+W
SciTegic.value.DoubleValue
7.353

@<SCITEGIC>MOL_PROPERTY
Grad RMS
SciTegic.value.DoubleValue
0.000000

@<SCITEGIC>MOL_PROPERTY
U
SciTegic.value.DoubleValue
8.455

@<SCITEGIC>MOL_PROPERTY
W
SciTegic.value.DoubleValue
-1.102

@<SCITEGIC>MOL_PROPERTY
W(PB)
SciTegic.value.DoubleValue
-3.101

@<SCITEGIC>MOL_PROPERTY
W(SA)
SciTegic.value.DoubleValue
2.000

@<SCITEGIC>MOL_PROPERTY
Valence
SciTegic.value.DoubleValue
15.601

@<SCITEGIC>MOL_PROPERTY
Coulomb
SciTegic.value.DoubleValue
-10.573

@<SCITEGIC>MOL_PROPERTY
VdW
SciTegic.value.DoubleValue
3.427

@<SCITEGIC>MOL_PROPERTY
VdW6
SciTegic.value.DoubleValue
-11.360

@<SCITEGIC>MOL_PROPERTY
VdW12
SciTegic.value.DoubleValue
14.787

@<SCITEGIC>MOL_PROPERTY
Bond
SciTegic.value.DoubleValue
0.471

@<SCITEGIC>MOL_PROPERTY
Angle
SciTegic.value.DoubleValue
5.445

@<SCITEGIC>MOL_PROPERTY
Pdih
SciTegic.value.DoubleValue
9.685

@<SCITEGIC>MOL_PROPERTY
Idih
SciTegic.value.DoubleValue
0.000

@<SCITEGIC>MOL_PROPERTY
Tether
SciTegic.value.DoubleValue
0.000

@<TRIPOS>MOLECULE
guest-5_confgen4.mol2 : confsearch ligand conformer 657
          22          22           1
SMALL
USER_CHARGES
 
@<TRIPOS>ATOM
       1    C1      21.605492   20.004902   23.107782 C.3        1 MOL1        -0.1685
       2    H1      21.346495   21.016148   22.768544 H          1 MOL1         0.0832
       3    H2      22.623918   20.091307   23.510341 H          1 MOL1         0.0832
       4    C2      21.633996   19.037447   21.897253 C.3        1 MOL1        -0.1685
       5    H3      22.379497   19.419232   21.186377 H          1 MOL1         0.0832
       6    H4      22.006205   18.055625   22.219911 H          1 MOL1         0.0832
       7    C3      20.292127   18.849950   21.136415 C.3        1 MOL1        -0.1685
       8    H5      19.836956   17.888508   21.407458 H          1 MOL1         0.0832
       9    H6      20.515360   18.764731   20.064249 H          1 MOL1         0.0832
      10    C4      19.256957   19.987850   21.339674 C.3        1 MOL1        -0.1761
      11    H7      19.735968   20.952056   21.128767 H          1 MOL1         0.0832
      12    H8      18.477903   19.886557   20.572079 H          1 MOL1         0.0832
      13    C5      18.579652   20.048940   22.740173 C.3        1 MOL1         0.1218
      14    H9      18.593315   21.095319   23.077770 H          1 MOL1         0.0789
      15    C6      19.227841   19.176596   23.844313 C.3        1 MOL1        -0.1761
      16    H10     18.594811   19.209309   24.740561 H          1 MOL1         0.0832
      17    H11     19.226370   18.125253   23.532440 H          1 MOL1         0.0832
      18    C7      20.661669   19.589547   24.260744 C.3        1 MOL1        -0.1685
      19    H12     20.598795   20.426802   24.969169 H          1 MOL1         0.0832
      20    H13     21.115949   18.758054   24.816549 H          1 MOL1         0.0832
      21    O1      17.226503   19.629543   22.605002 O.3        1 MOL1        -0.5509
      22    H14     16.809474   19.732127   23.485765 H          1 MOL1         0.3779
@<TRIPOS>BOND
    1     1     2    1
    2     1     3    1
    3     1     4    1
    4     4     5    1
    5     4     6    1
    6     4     7    1
    7     7     8    1
    8     7     9    1
    9     7    10    1
   10    10    11    1
   11    10    12    1
   12    10    13    1
   13    13    14    1
   14    13    15    1
   15    15    16    1
   16    15    17    1
   17     1    18    1
   18    15    18    1
   19    18    19    1
   20    18    20    1
   21    13    21    1
   22    21    22    1
@<TRIPOS>SUBSTRUCTURE
       1 MOL1            1 RESIDUE      1      MOL     
@<SCITEGIC>MOL_PROPERTY
VConf Rank
SciTegic.value.IntegerValue
657

@<SCITEGIC>MOL_PROPERTY
Conf_Id
SciTegic.value.IntegerValue
141

@<SCITEGIC>MOL_PROPERTY
Delta U+W
SciTegic.value.DoubleValue
0.000

@<SCITEGIC>MOL_PROPERTY
U+W
SciTegic.value.DoubleValue
6.423

@<SCITEGIC>MOL_PROPERTY
Grad RMS
SciTegic.value.DoubleValue
0.000000

@<SCITEGIC>MOL_PROPERTY
U
SciTegic.value.DoubleValue
8.781

@<SCITEGIC>MOL_PROPERTY
W
SciTegic.value.DoubleValue
-2.358

@<SCITEGIC>MOL_PROPERTY
W(PB)
SciTegic.value.DoubleValue
-4.373

@<SCITEGIC>MOL_PROPERTY
W(SA)
SciTegic.value.DoubleValue
2.015

@<SCITEGIC>MOL_PROPERTY
Valence
SciTegic.value.DoubleValue
13.328

@<SCITEGIC>MOL_PROPERTY
Coulomb
SciTegic.value.DoubleValue
-8.387

@<SCITEGIC>MOL_PROPERTY
VdW
SciTegic.value.DoubleValue
3.840

@<SCITEGIC>MOL_PROPERTY
VdW6
SciTegic.value.DoubleValue
-9.744

@<SCITEGIC>MOL_PROPERTY
VdW12
SciTegic.value.DoubleValue
13.584

@<SCITEGIC>MOL_PROPERTY
Bond
SciTegic.value.DoubleValue
0.436

@<SCITEGIC>MOL_PROPERTY
Angle
SciTegic.value.DoubleValue
3.478

@<SCITEGIC>MOL_PROPERTY
Pdih
SciTegic.value.DoubleValue
9.415

@<SCITEGIC>MOL_PROPERTY
Idih
SciTegic.value.DoubleValue
0.000

@<SCITEGIC>MOL_PROPERTY
Tether
SciTegic.value.DoubleValue
0.000

@<TRIPOS>MOLECULE
guest-5_confgen4.mol2 : confsearch ligand conformer 658
          22          22           1
SMALL
USER_CHARGES
 
@<TRIPOS>ATOM
       1    C1      20.616267   21.162389   22.157204 C.3        1 MOL1        -0.1685
       2    H1      20.334114   21.567945   23.138287 H          1 MOL1         0.0832
       3    H2      21.118455   21.980751   21.623354 H          1 MOL1         0.0832
       4    C2      19.362436   20.768187   21.339788 C.3        1 MOL1        -0.1685
       5    H3      18.821722   21.684119   21.064919 H          1 MOL1         0.0832
       6    H4      19.675162   20.310333   20.391394 H          1 MOL1         0.0832
       7    C3      18.374516   19.823544   22.062278 C.3        1 MOL1        -0.1685
       8    H5      17.570171   19.566808   21.359468 H          1 MOL1         0.0832
       9    H6      17.890317   20.363770   22.887304 H          1 MOL1         0.0832
      10    C4      18.997997   18.512371   22.600122 C.3        1 MOL1        -0.1761
      11    H7      18.173701   17.840939   22.874349 H          1 MOL1         0.0832
      12    H8      19.560549   17.998455   21.809917 H          1 MOL1         0.0832
      13    C5      19.891965   18.741444   23.839466 C.3        1 MOL1         0.1218
      14    H9      19.474384   19.580211   24.414739 H          1 MOL1         0.0789
      15    C6      21.368630   19.063328   23.515202 C.3        1 MOL1        -0.1761
      16    H10     21.814248   19.512941   24.411930 H          1 MOL1         0.0832
      17    H11     21.915825   18.126477   23.344910 H          1 MOL1         0.0832
      18    C7      21.625752   20.000479   22.308686 C.3        1 MOL1        -0.1685
      19    H12     22.636787   20.417498   22.412259 H          1 MOL1         0.0832
      20    H13     21.644781   19.410189   21.382453 H          1 MOL1         0.0832
      21    O1      19.863161   17.571532   24.647979 O.3        1 MOL1        -0.5509
      22    H14     18.928117   17.428801   24.904763 H          1 MOL1         0.3779
@<TRIPOS>BOND
    1     1     2    1
    2     1     3    1
    3     1     4    1
    4     4     5    1
    5     4     6    1
    6     4     7    1
    7     7     8    1
    8     7     9    1
    9     7    10    1
   10    10    11    1
   11    10    12    1
   12    10    13    1
   13    13    14    1
   14    13    15    1
   15    15    16    1
   16    15    17    1
   17     1    18    1
   18    15    18    1
   19    18    19    1
   20    18    20    1
   21    13    21    1
   22    21    22    1
@<TRIPOS>SUBSTRUCTURE
       1 MOL1            1 RESIDUE      1      MOL     
@<SCITEGIC>MOL_PROPERTY
VConf Rank
SciTegic.value.IntegerValue
658

@<SCITEGIC>MOL_PROPERTY
Conf_Id
SciTegic.value.IntegerValue
144

@<SCITEGIC>MOL_PROPERTY
Delta U+W
SciTegic.value.DoubleValue
-3.291

@<SCITEGIC>MOL_PROPERTY
U+W
SciTegic.value.DoubleValue
3.132

@<SCITEGIC>MOL_PROPERTY
Grad RMS
SciTegic.value.DoubleValue
0.000000

@<SCITEGIC>MOL_PROPERTY
U
SciTegic.value.DoubleValue
5.411

@<SCITEGIC>MOL_PROPERTY
W
SciTegic.value.DoubleValue
-2.279

@<SCITEGIC>MOL_PROPERTY
W(PB)
SciTegic.value.DoubleValue
-4.300

@<SCITEGIC>MOL_PROPERTY
W(SA)
SciTegic.value.DoubleValue
2.021

@<SCITEGIC>MOL_PROPERTY
Valence
SciTegic.value.DoubleValue
11.909

@<SCITEGIC>MOL_PROPERTY
Coulomb
SciTegic.value.DoubleValue
-8.733

@<SCITEGIC>MOL_PROPERTY
VdW
SciTegic.value.DoubleValue
2.236

@<SCITEGIC>MOL_PROPERTY
VdW6
SciTegic.value.DoubleValue
-8.936

@<SCITEGIC>MOL_PROPERTY
VdW12
SciTegic.value.DoubleValue
11.172

@<SCITEGIC>MOL_PROPERTY
Bond
SciTegic.value.DoubleValue
0.223

@<SCITEGIC>MOL_PROPERTY
Angle
SciTegic.value.DoubleValue
2.457

@<SCITEGIC>MOL_PROPERTY
Pdih
SciTegic.value.DoubleValue
9.228

@<SCITEGIC>MOL_PROPERTY
Idih
SciTegic.value.DoubleValue
0.000

@<SCITEGIC>MOL_PROPERTY
Tether
SciTegic.value.DoubleValue
0.000

@<TRIPOS>MOLECULE
guest-5_confgen4.mol2 : confsearch ligand conformer 659
          22          22           1
SMALL
USER_CHARGES
 
@<TRIPOS>ATOM
       1    C1      21.113872   20.643664   23.312970 C.3        1 MOL1        -0.1685
       2    H1      22.041661   21.176775   23.561748 H          1 MOL1         0.0832
       3    H2      20.314780   21.145806   23.875098 H          1 MOL1         0.0832
       4    C2      21.269361   19.174214   23.769713 C.3        1 MOL1        -0.1685
       5    H3      21.818722   18.609589   23.004092 H          1 MOL1         0.0832
       6    H4      21.904056   19.145945   24.666017 H          1 MOL1         0.0832
       7    C3      19.944201   18.446112   24.100987 C.3        1 MOL1        -0.1685
       8    H5      19.651308   18.688358   25.131737 H          1 MOL1         0.0832
       9    H6      20.136483   17.364462   24.092100 H          1 MOL1         0.0832
      10    C4      18.742209   18.751998   23.173739 C.3        1 MOL1        -0.1761
      11    H7      18.003518   17.949906   23.305852 H          1 MOL1         0.0832
      12    H8      18.248169   19.670784   23.515281 H          1 MOL1         0.0832
      13    C5      19.093482   18.887668   21.675141 C.3        1 MOL1         0.1218
      14    H9      19.911899   18.197733   21.424837 H          1 MOL1         0.0789
      15    C6      19.494247   20.329541   21.288661 C.3        1 MOL1        -0.1761
      16    H10     19.482134   20.416449   20.193932 H          1 MOL1         0.0832
      17    H11     18.735291   21.031933   21.657059 H          1 MOL1         0.0832
      18    C7      20.887445   20.780336   21.788161 C.3        1 MOL1        -0.1685
      19    H12     21.665313   20.219525   21.252124 H          1 MOL1         0.0832
      20    H13     21.029150   21.832514   21.505974 H          1 MOL1         0.0832
      21    O1      17.946414   18.534730   20.913642 O.3        1 MOL1        -0.5509
      22    H14     17.242359   19.167585   21.164562 H          1 MOL1         0.3779
@<TRIPOS>BOND
    1     1     2    1
    2     1     3    1
    3     1     4    1
    4     4     5    1
    5     4     6    1
    6     4     7    1
    7     7     8    1
    8     7     9    1
    9     7    10    1
   10    10    11    1
   11    10    12    1
   12    10    13    1
   13    13    14    1
   14    13    15    1
   15    15    16    1
   16    15    17    1
   17     1    18    1
   18    15    18    1
   19    18    19    1
   20    18    20    1
   21    13    21    1
   22    21    22    1
@<TRIPOS>SUBSTRUCTURE
       1 MOL1            1 RESIDUE      1      MOL     
@<SCITEGIC>MOL_PROPERTY
VConf Rank
SciTegic.value.IntegerValue
659

@<SCITEGIC>MOL_PROPERTY
Conf_Id
SciTegic.value.IntegerValue
76

@<SCITEGIC>MOL_PROPERTY
Delta U+W
SciTegic.value.DoubleValue
-3.175

@<SCITEGIC>MOL_PROPERTY
U+W
SciTegic.value.DoubleValue
3.248

@<SCITEGIC>MOL_PROPERTY
Grad RMS
SciTegic.value.DoubleValue
0.000000

@<SCITEGIC>MOL_PROPERTY
U
SciTegic.value.DoubleValue
5.336

@<SCITEGIC>MOL_PROPERTY
W
SciTegic.value.DoubleValue
-2.088

@<SCITEGIC>MOL_PROPERTY
W(PB)
SciTegic.value.DoubleValue
-4.098

@<SCITEGIC>MOL_PROPERTY
W(SA)
SciTegic.value.DoubleValue
2.010

@<SCITEGIC>MOL_PROPERTY
Valence
SciTegic.value.DoubleValue
12.390

@<SCITEGIC>MOL_PROPERTY
Coulomb
SciTegic.value.DoubleValue
-9.270

@<SCITEGIC>MOL_PROPERTY
VdW
SciTegic.value.DoubleValue
2.216

@<SCITEGIC>MOL_PROPERTY
VdW6
SciTegic.value.DoubleValue
-8.967

@<SCITEGIC>MOL_PROPERTY
VdW12
SciTegic.value.DoubleValue
11.183

@<SCITEGIC>MOL_PROPERTY
Bond
SciTegic.value.DoubleValue
0.218

@<SCITEGIC>MOL_PROPERTY
Angle
SciTegic.value.DoubleValue
2.426

@<SCITEGIC>MOL_PROPERTY
Pdih
SciTegic.value.DoubleValue
9.745

@<SCITEGIC>MOL_PROPERTY
Idih
SciTegic.value.DoubleValue
0.000

@<SCITEGIC>MOL_PROPERTY
Tether
SciTegic.value.DoubleValue
0.000

@<TRIPOS>MOLECULE
guest-5_confgen4.mol2 : confsearch ligand conformer 660
          22          22           1
SMALL
USER_CHARGES
 
@<TRIPOS>ATOM
       1    C1      18.302336   19.423506   23.303440 C.3        1 MOL1        -0.1685
       2    H1      17.766910   18.508622   23.591689 H          1 MOL1         0.0832
       3    H2      17.617774   20.252818   23.528009 H          1 MOL1         0.0832
       4    C2      18.551112   19.378034   21.776771 C.3        1 MOL1        -0.1685
       5    H3      18.763608   18.344802   21.470576 H          1 MOL1         0.0832
       6    H4      17.613204   19.646818   21.271927 H          1 MOL1         0.0832
       7    C3      19.678565   20.307099   21.269592 C.3        1 MOL1        -0.1685
       8    H5      19.686583   21.255337   21.824224 H          1 MOL1         0.0832
       9    H6      19.462017   20.567145   20.224712 H          1 MOL1         0.0832
      10    C4      21.074016   19.633856   21.308820 C.3        1 MOL1        -0.1761
      11    H7      21.017758   18.657691   20.810373 H          1 MOL1         0.0832
      12    H8      21.769002   20.232981   20.705945 H          1 MOL1         0.0832
      13    C5      21.700947   19.442458   22.708614 C.3        1 MOL1         0.1218
      14    H9      22.583106   18.799636   22.575673 H          1 MOL1         0.0789
      15    C6      20.786704   18.751758   23.751486 C.3        1 MOL1        -0.1761
      16    H10     20.463764   17.773300   23.373056 H          1 MOL1         0.0832
      17    H11     21.397794   18.539015   24.638107 H          1 MOL1         0.0832
      18    C7      19.554399   19.580243   24.198982 C.3        1 MOL1        -0.1685
      19    H12     19.278674   19.280881   25.219168 H          1 MOL1         0.0832
      20    H13     19.820550   20.643053   24.269972 H          1 MOL1         0.0832
      21    O1      22.141435   20.703432   23.202513 O.3        1 MOL1        -0.5509
      22    H14     22.481960   20.545325   24.106576 H          1 MOL1         0.3779
@<TRIPOS>BOND
    1     1     2    1
    2     1     3    1
    3     1     4    1
    4     4     5    1
    5     4     6    1
    6     4     7    1
    7     7     8    1
    8     7     9    1
    9     7    10    1
   10    10    11    1
   11    10    12    1
   12    10    13    1
   13    13    14    1
   14    13    15    1
   15    15    16    1
   16    15    17    1
   17     1    18    1
   18    15    18    1
   19    18    19    1
   20    18    20    1
   21    13    21    1
   22    21    22    1
@<TRIPOS>SUBSTRUCTURE
       1 MOL1            1 RESIDUE      1      MOL     
@<SCITEGIC>MOL_PROPERTY
VConf Rank
SciTegic.value.IntegerValue
660

@<SCITEGIC>MOL_PROPERTY
Conf_Id
SciTegic.value.IntegerValue
95

@<SCITEGIC>MOL_PROPERTY
Delta U+W
SciTegic.value.DoubleValue
-2.289

@<SCITEGIC>MOL_PROPERTY
U+W
SciTegic.value.DoubleValue
4.134

@<SCITEGIC>MOL_PROPERTY
Grad RMS
SciTegic.value.DoubleValue
0.000000

@<SCITEGIC>MOL_PROPERTY
U
SciTegic.value.DoubleValue
6.373

@<SCITEGIC>MOL_PROPERTY
W
SciTegic.value.DoubleValue
-2.240

@<SCITEGIC>MOL_PROPERTY
W(PB)
SciTegic.value.DoubleValue
-4.254

@<SCITEGIC>MOL_PROPERTY
W(SA)
SciTegic.value.DoubleValue
2.015

@<SCITEGIC>MOL_PROPERTY
Valence
SciTegic.value.DoubleValue
12.093

@<SCITEGIC>MOL_PROPERTY
Coulomb
SciTegic.value.DoubleValue
-8.058

@<SCITEGIC>MOL_PROPERTY
VdW
SciTegic.value.DoubleValue
2.339

@<SCITEGIC>MOL_PROPERTY
VdW6
SciTegic.value.DoubleValue
-9.683

@<SCITEGIC>MOL_PROPERTY
VdW12
SciTegic.value.DoubleValue
12.022

@<SCITEGIC>MOL_PROPERTY
Bond
SciTegic.value.DoubleValue
0.268

@<SCITEGIC>MOL_PROPERTY
Angle
SciTegic.value.DoubleValue
3.005

@<SCITEGIC>MOL_PROPERTY
Pdih
SciTegic.value.DoubleValue
8.820

@<SCITEGIC>MOL_PROPERTY
Idih
SciTegic.value.DoubleValue
0.000

@<SCITEGIC>MOL_PROPERTY
Tether
SciTegic.value.DoubleValue
0.000

@<TRIPOS>MOLECULE
guest-5_confgen4.mol2 : confsearch ligand conformer 661
          22          22           1
SMALL
USER_CHARGES
 
@<TRIPOS>ATOM
       1    C1      19.179367   19.278522   21.039049 C.3        1 MOL1        -0.1685
       2    H1      19.627318   18.892222   20.113378 H          1 MOL1         0.0832
       3    H2      18.107201   19.389904   20.827290 H          1 MOL1         0.0832
       4    C2      19.781857   20.675401   21.322001 C.3        1 MOL1        -0.1685
       5    H3      20.838187   20.686054   21.021114 H          1 MOL1         0.0832
       6    H4      19.282311   21.399881   20.664443 H          1 MOL1         0.0832
       7    C3      19.658664   21.157954   22.786065 C.3        1 MOL1        -0.1685
       8    H5      18.697889   20.851324   23.221622 H          1 MOL1         0.0832
       9    H6      19.655480   22.256320   22.783177 H          1 MOL1         0.0832
      10    C4      20.842456   20.691451   23.670553 C.3        1 MOL1        -0.1761
      11    H7      21.785945   20.936766   23.166028 H          1 MOL1         0.0832
      12    H8      20.844416   21.283372   24.595003 H          1 MOL1         0.0832
      13    C5      20.860317   19.193332   24.051414 C.3        1 MOL1         0.1218
      14    H9      21.835758   18.996134   24.519099 H          1 MOL1         0.0789
      15    C6      20.719977   18.210517   22.861997 C.3        1 MOL1        -0.1761
      16    H10     21.518058   18.391148   22.130609 H          1 MOL1         0.0832
      17    H11     20.895344   17.200266   23.253748 H          1 MOL1         0.0832
      18    C7      19.338401   18.220897   22.157311 C.3        1 MOL1        -0.1685
      19    H12     19.161457   17.231860   21.713787 H          1 MOL1         0.0832
      20    H13     18.541156   18.351730   22.900885 H          1 MOL1         0.0832
      21    O1      19.845474   18.939722   25.018196 O.3        1 MOL1        -0.5509
      22    H14     19.969304   19.595038   25.734725 H          1 MOL1         0.3779
@<TRIPOS>BOND
    1     1     2    1
    2     1     3    1
    3     1     4    1
    4     4     5    1
    5     4     6    1
    6     4     7    1
    7     7     8    1
    8     7     9    1
    9     7    10    1
   10    10    11    1
   11    10    12    1
   12    10    13    1
   13    13    14    1
   14    13    15    1
   15    15    16    1
   16    15    17    1
   17     1    18    1
   18    15    18    1
   19    18    19    1
   20    18    20    1
   21    13    21    1
   22    21    22    1
@<TRIPOS>SUBSTRUCTURE
       1 MOL1            1 RESIDUE      1      MOL     
@<SCITEGIC>MOL_PROPERTY
VConf Rank
SciTegic.value.IntegerValue
661

@<SCITEGIC>MOL_PROPERTY
Conf_Id
SciTegic.value.IntegerValue
41

@<SCITEGIC>MOL_PROPERTY
Delta U+W
SciTegic.value.DoubleValue
-2.114

@<SCITEGIC>MOL_PROPERTY
U+W
SciTegic.value.DoubleValue
4.310

@<SCITEGIC>MOL_PROPERTY
Grad RMS
SciTegic.value.DoubleValue
0.000000

@<SCITEGIC>MOL_PROPERTY
U
SciTegic.value.DoubleValue
6.598

@<SCITEGIC>MOL_PROPERTY
W
SciTegic.value.DoubleValue
-2.289

@<SCITEGIC>MOL_PROPERTY
W(PB)
SciTegic.value.DoubleValue
-4.294

@<SCITEGIC>MOL_PROPERTY
W(SA)
SciTegic.value.DoubleValue
2.005

@<SCITEGIC>MOL_PROPERTY
Valence
SciTegic.value.DoubleValue
12.082

@<SCITEGIC>MOL_PROPERTY
Coulomb
SciTegic.value.DoubleValue
-7.801

@<SCITEGIC>MOL_PROPERTY
VdW
SciTegic.value.DoubleValue
2.317

@<SCITEGIC>MOL_PROPERTY
VdW6
SciTegic.value.DoubleValue
-9.658

@<SCITEGIC>MOL_PROPERTY
VdW12
SciTegic.value.DoubleValue
11.975

@<SCITEGIC>MOL_PROPERTY
Bond
SciTegic.value.DoubleValue
0.267

@<SCITEGIC>MOL_PROPERTY
Angle
SciTegic.value.DoubleValue
3.051

@<SCITEGIC>MOL_PROPERTY
Pdih
SciTegic.value.DoubleValue
8.764

@<SCITEGIC>MOL_PROPERTY
Idih
SciTegic.value.DoubleValue
0.000

@<SCITEGIC>MOL_PROPERTY
Tether
SciTegic.value.DoubleValue
0.000

@<TRIPOS>MOLECULE
guest-5_confgen4.mol2 : confsearch ligand conformer 662
          22          22           1
SMALL
USER_CHARGES
 
@<TRIPOS>ATOM
       1    C1      19.140515   20.364225   21.619419 C.3        1 MOL1        -0.1685
       2    H1      18.349298   20.713720   20.942383 H          1 MOL1         0.0832
       3    H2      19.779371   21.234870   21.821944 H          1 MOL1         0.0832
       4    C2      19.936783   19.260497   20.887894 C.3        1 MOL1        -0.1685
       5    H3      19.298962   18.376789   20.750689 H          1 MOL1         0.0832
       6    H4      20.181041   19.615353   19.877461 H          1 MOL1         0.0832
       7    C3      21.250628   18.844469   21.584998 C.3        1 MOL1        -0.1685
       8    H5      21.970266   19.672255   21.532251 H          1 MOL1         0.0832
       9    H6      21.698612   18.028001   21.002920 H          1 MOL1         0.0832
      10    C4      21.095643   18.368371   23.054861 C.3        1 MOL1        -0.1761
      11    H7      20.320483   17.594359   23.120370 H          1 MOL1         0.0832
      12    H8      22.032229   17.874953   23.344566 H          1 MOL1         0.0832
      13    C5      20.821153   19.477926   24.102512 C.3        1 MOL1         0.1218
      14    H9      21.054248   19.046723   25.086895 H          1 MOL1         0.0789
      15    C6      19.356521   19.980600   24.188024 C.3        1 MOL1        -0.1761
      16    H10     18.854815   19.426858   24.992215 H          1 MOL1         0.0832
      17    H11     19.356473   21.028317   24.516294 H          1 MOL1         0.0832
      18    C7      18.476425   19.859049   22.919342 C.3        1 MOL1        -0.1685
      19    H12     18.150194   18.818255   22.789970 H          1 MOL1         0.0832
      20    H13     17.557738   20.436135   23.091577 H          1 MOL1         0.0832
      21    O1      21.696597   20.583730   23.898269 O.3        1 MOL1        -0.5509
      22    H14     21.505890   21.230174   24.607952 H          1 MOL1         0.3779
@<TRIPOS>BOND
    1     1     2    1
    2     1     3    1
    3     1     4    1
    4     4     5    1
    5     4     6    1
    6     4     7    1
    7     7     8    1
    8     7     9    1
    9     7    10    1
   10    10    11    1
   11    10    12    1
   12    10    13    1
   13    13    14    1
   14    13    15    1
   15    15    16    1
   16    15    17    1
   17     1    18    1
   18    15    18    1
   19    18    19    1
   20    18    20    1
   21    13    21    1
   22    21    22    1
@<TRIPOS>SUBSTRUCTURE
       1 MOL1            1 RESIDUE      1      MOL     
@<SCITEGIC>MOL_PROPERTY
VConf Rank
SciTegic.value.IntegerValue
662

@<SCITEGIC>MOL_PROPERTY
Conf_Id
SciTegic.value.IntegerValue
104

@<SCITEGIC>MOL_PROPERTY
Delta U+W
SciTegic.value.DoubleValue
-1.172

@<SCITEGIC>MOL_PROPERTY
U+W
SciTegic.value.DoubleValue
5.252

@<SCITEGIC>MOL_PROPERTY
Grad RMS
SciTegic.value.DoubleValue
0.000000

@<SCITEGIC>MOL_PROPERTY
U
SciTegic.value.DoubleValue
7.482

@<SCITEGIC>MOL_PROPERTY
W
SciTegic.value.DoubleValue
-2.230

@<SCITEGIC>MOL_PROPERTY
W(PB)
SciTegic.value.DoubleValue
-4.220

@<SCITEGIC>MOL_PROPERTY
W(SA)
SciTegic.value.DoubleValue
1.990

@<SCITEGIC>MOL_PROPERTY
Valence
SciTegic.value.DoubleValue
12.309

@<SCITEGIC>MOL_PROPERTY
Coulomb
SciTegic.value.DoubleValue
-7.084

@<SCITEGIC>MOL_PROPERTY
VdW
SciTegic.value.DoubleValue
2.258

@<SCITEGIC>MOL_PROPERTY
VdW6
SciTegic.value.DoubleValue
-9.770

@<SCITEGIC>MOL_PROPERTY
VdW12
SciTegic.value.DoubleValue
12.028

@<SCITEGIC>MOL_PROPERTY
Bond
SciTegic.value.DoubleValue
0.284

@<SCITEGIC>MOL_PROPERTY
Angle
SciTegic.value.DoubleValue
3.491

@<SCITEGIC>MOL_PROPERTY
Pdih
SciTegic.value.DoubleValue
8.535

@<SCITEGIC>MOL_PROPERTY
Idih
SciTegic.value.DoubleValue
0.000

@<SCITEGIC>MOL_PROPERTY
Tether
SciTegic.value.DoubleValue
0.000

@<TRIPOS>MOLECULE
guest-5_confgen4.mol2 : confsearch ligand conformer 663
          22          22           1
SMALL
USER_CHARGES
 
@<TRIPOS>ATOM
       1    C1      20.618529   20.005420   21.177766 C.3        1 MOL1        -0.1685
       2    H1      19.856693   20.785099   21.042895 H          1 MOL1         0.0832
       3    H2      21.211174   19.998837   20.252743 H          1 MOL1         0.0832
       4    C2      19.963354   18.613569   21.329364 C.3        1 MOL1        -0.1685
       5    H3      19.685953   18.246405   20.331622 H          1 MOL1         0.0832
       6    H4      20.710356   17.898178   21.697523 H          1 MOL1         0.0832
       7    C3      18.696509   18.561183   22.220449 C.3        1 MOL1        -0.1685
       8    H5      18.591944   17.541690   22.616699 H          1 MOL1         0.0832
       9    H6      17.816092   18.717040   21.582090 H          1 MOL1         0.0832
      10    C4      18.609109   19.575063   23.393314 C.3        1 MOL1        -0.1761
      11    H7      18.306802   20.554094   22.999535 H          1 MOL1         0.0832
      12    H8      17.786977   19.262999   24.050366 H          1 MOL1         0.0832
      13    C5      19.874920   19.758582   24.261661 C.3        1 MOL1         0.1218
      14    H9      19.550877   20.166265   25.229995 H          1 MOL1         0.0789
      15    C6      20.872893   20.774127   23.660839 C.3        1 MOL1        -0.1761
      16    H10     20.351744   21.727086   23.501671 H          1 MOL1         0.0832
      17    H11     21.644697   20.981604   24.413511 H          1 MOL1         0.0832
      18    C7      21.572959   20.358826   22.343180 C.3        1 MOL1        -0.1685
      19    H12     22.212100   21.193465   22.024451 H          1 MOL1         0.0832
      20    H13     22.256163   19.519926   22.532800 H          1 MOL1         0.0832
      21    O1      20.516546   18.511256   24.477680 O.3        1 MOL1        -0.5509
      22    H14     20.697315   18.176808   23.576707 H          1 MOL1         0.3779
@<TRIPOS>BOND
    1     1     2    1
    2     1     3    1
    3     1     4    1
    4     4     5    1
    5     4     6    1
    6     4     7    1
    7     7     8    1
    8     7     9    1
    9     7    10    1
   10    10    11    1
   11    10    12    1
   12    10    13    1
   13    13    14    1
   14    13    15    1
   15    15    16    1
   16    15    17    1
   17     1    18    1
   18    15    18    1
   19    18    19    1
   20    18    20    1
   21    13    21    1
   22    21    22    1
@<TRIPOS>SUBSTRUCTURE
       1 MOL1            1 RESIDUE      1      MOL     
@<SCITEGIC>MOL_PROPERTY
VConf Rank
SciTegic.value.IntegerValue
663

@<SCITEGIC>MOL_PROPERTY
Conf_Id
SciTegic.value.IntegerValue
99

@<SCITEGIC>MOL_PROPERTY
Delta U+W
SciTegic.value.DoubleValue
-3.852

@<SCITEGIC>MOL_PROPERTY
U+W
SciTegic.value.DoubleValue
2.572

@<SCITEGIC>MOL_PROPERTY
Grad RMS
SciTegic.value.DoubleValue
0.000000

@<SCITEGIC>MOL_PROPERTY
U
SciTegic.value.DoubleValue
3.922

@<SCITEGIC>MOL_PROPERTY
W
SciTegic.value.DoubleValue
-1.350

@<SCITEGIC>MOL_PROPERTY
W(PB)
SciTegic.value.DoubleValue
-3.345

@<SCITEGIC>MOL_PROPERTY
W(SA)
SciTegic.value.DoubleValue
1.995

@<SCITEGIC>MOL_PROPERTY
Valence
SciTegic.value.DoubleValue
12.571

@<SCITEGIC>MOL_PROPERTY
Coulomb
SciTegic.value.DoubleValue
-10.581

@<SCITEGIC>MOL_PROPERTY
VdW
SciTegic.value.DoubleValue
1.932

@<SCITEGIC>MOL_PROPERTY
VdW6
SciTegic.value.DoubleValue
-10.483

@<SCITEGIC>MOL_PROPERTY
VdW12
SciTegic.value.DoubleValue
12.415

@<SCITEGIC>MOL_PROPERTY
Bond
SciTegic.value.DoubleValue
0.268

@<SCITEGIC>MOL_PROPERTY
Angle
SciTegic.value.DoubleValue
3.728

@<SCITEGIC>MOL_PROPERTY
Pdih
SciTegic.value.DoubleValue
8.575

@<SCITEGIC>MOL_PROPERTY
Idih
SciTegic.value.DoubleValue
0.000

@<SCITEGIC>MOL_PROPERTY
Tether
SciTegic.value.DoubleValue
0.000

@<TRIPOS>MOLECULE
guest-5_confgen4.mol2 : confsearch ligand conformer 664
          22          22           1
SMALL
USER_CHARGES
 
@<TRIPOS>ATOM
       1    C1      19.261117   19.270532   21.257893 C.3        1 MOL1        -0.1685
       2    H1      19.229929   18.916540   20.218178 H          1 MOL1         0.0832
       3    H2      18.223616   19.540381   21.496279 H          1 MOL1         0.0832
       4    C2      20.168530   20.534754   21.304762 C.3        1 MOL1        -0.1685
       5    H3      20.529964   20.728051   20.285305 H          1 MOL1         0.0832
       6    H4      19.572162   21.419126   21.566077 H          1 MOL1         0.0832
       7    C3      21.404915   20.448977   22.235754 C.3        1 MOL1        -0.1685
       8    H5      22.053724   21.311287   22.030343 H          1 MOL1         0.0832
       9    H6      22.012358   19.576399   21.965217 H          1 MOL1         0.0832
      10    C4      21.109043   20.429562   23.761176 C.3        1 MOL1        -0.1761
      11    H7      21.971613   19.982778   24.272153 H          1 MOL1         0.0832
      12    H8      21.065201   21.466837   24.119134 H          1 MOL1         0.0832
      13    C5      19.825577   19.713267   24.248819 C.3        1 MOL1         0.1218
      14    H9      19.912028   19.610789   25.340056 H          1 MOL1         0.0789
      15    C6      19.575680   18.293928   23.682098 C.3        1 MOL1        -0.1761
      16    H10     20.256850   17.594678   24.183892 H          1 MOL1         0.0832
      17    H11     18.567045   17.987666   23.990086 H          1 MOL1         0.0832
      18    C7      19.705881   18.082099   22.148156 C.3        1 MOL1        -0.1685
      19    H12     20.736094   17.798444   21.899621 H          1 MOL1         0.0832
      20    H13     19.104863   17.203108   21.878199 H          1 MOL1         0.0832
      21    O1      18.696317   20.533502   23.993420 O.3        1 MOL1        -0.5509
      22    H14     18.663364   20.593199   23.017570 H          1 MOL1         0.3779
@<TRIPOS>BOND
    1     1     2    1
    2     1     3    1
    3     1     4    1
    4     4     5    1
    5     4     6    1
    6     4     7    1
    7     7     8    1
    8     7     9    1
    9     7    10    1
   10    10    11    1
   11    10    12    1
   12    10    13    1
   13    13    14    1
   14    13    15    1
   15    15    16    1
   16    15    17    1
   17     1    18    1
   18    15    18    1
   19    18    19    1
   20    18    20    1
   21    13    21    1
   22    21    22    1
@<TRIPOS>SUBSTRUCTURE
       1 MOL1            1 RESIDUE      1      MOL     
@<SCITEGIC>MOL_PROPERTY
VConf Rank
SciTegic.value.IntegerValue
664

@<SCITEGIC>MOL_PROPERTY
Conf_Id
SciTegic.value.IntegerValue
98

@<SCITEGIC>MOL_PROPERTY
Delta U+W
SciTegic.value.DoubleValue
0.930

@<SCITEGIC>MOL_PROPERTY
U+W
SciTegic.value.DoubleValue
7.353

@<SCITEGIC>MOL_PROPERTY
Grad RMS
SciTegic.value.DoubleValue
0.000000

@<SCITEGIC>MOL_PROPERTY
U
SciTegic.value.DoubleValue
8.455

@<SCITEGIC>MOL_PROPERTY
W
SciTegic.value.DoubleValue
-1.102

@<SCITEGIC>MOL_PROPERTY
W(PB)
SciTegic.value.DoubleValue
-3.101

@<SCITEGIC>MOL_PROPERTY
W(SA)
SciTegic.value.DoubleValue
2.000

@<SCITEGIC>MOL_PROPERTY
Valence
SciTegic.value.DoubleValue
15.601

@<SCITEGIC>MOL_PROPERTY
Coulomb
SciTegic.value.DoubleValue
-10.573

@<SCITEGIC>MOL_PROPERTY
VdW
SciTegic.value.DoubleValue
3.427

@<SCITEGIC>MOL_PROPERTY
VdW6
SciTegic.value.DoubleValue
-11.360

@<SCITEGIC>MOL_PROPERTY
VdW12
SciTegic.value.DoubleValue
14.787

@<SCITEGIC>MOL_PROPERTY
Bond
SciTegic.value.DoubleValue
0.471

@<SCITEGIC>MOL_PROPERTY
Angle
SciTegic.value.DoubleValue
5.445

@<SCITEGIC>MOL_PROPERTY
Pdih
SciTegic.value.DoubleValue
9.685

@<SCITEGIC>MOL_PROPERTY
Idih
SciTegic.value.DoubleValue
0.000

@<SCITEGIC>MOL_PROPERTY
Tether
SciTegic.value.DoubleValue
0.000

@<TRIPOS>MOLECULE
guest-5_confgen4.mol2 : confsearch ligand conformer 665
          22          22           1
SMALL
USER_CHARGES
 
@<TRIPOS>ATOM
       1    C1      20.836631   18.566103   21.495885 C.3        1 MOL1        -0.1685
       2    H1      20.762902   19.418743   20.808608 H          1 MOL1         0.0832
       3    H2      21.407317   17.805296   20.946156 H          1 MOL1         0.0832
       4    C2      19.421720   18.005383   21.788763 C.3        1 MOL1        -0.1685
       5    H3      18.980787   17.702895   20.829099 H          1 MOL1         0.0832
       6    H4      19.506628   17.083931   22.380658 H          1 MOL1         0.0832
       7    C3      18.431132   18.974413   22.491872 C.3        1 MOL1        -0.1685
       8    H5      18.338399   18.712566   23.553875 H          1 MOL1         0.0832
       9    H6      17.430575   18.806245   22.070875 H          1 MOL1         0.0832
      10    C4      18.779537   20.480629   22.359059 C.3        1 MOL1        -0.1761
      11    H7      18.933736   20.722344   21.300087 H          1 MOL1         0.0832
      12    H8      17.898830   21.065850   22.656145 H          1 MOL1         0.0832
      13    C5      20.009351   20.969118   23.179307 C.3        1 MOL1         0.1218
      14    H9      20.629263   21.594319   22.520596 H          1 MOL1         0.0789
      15    C6      20.908506   19.858389   23.777688 C.3        1 MOL1        -0.1761
      16    H10     21.661203   20.322365   24.428249 H          1 MOL1         0.0832
      17    H11     20.313455   19.219181   24.440950 H          1 MOL1         0.0832
      18    C7      21.653195   18.977688   22.743468 C.3        1 MOL1        -0.1685
      19    H12     22.551131   19.511316   22.403223 H          1 MOL1         0.0832
      20    H13     22.014590   18.073559   23.252011 H          1 MOL1         0.0832
      21    O1      19.541583   21.767540   24.260460 O.3        1 MOL1        -0.5509
      22    H14     20.334782   22.107929   24.724303 H          1 MOL1         0.3779
@<TRIPOS>BOND
    1     1     2    1
    2     1     3    1
    3     1     4    1
    4     4     5    1
    5     4     6    1
    6     4     7    1
    7     7     8    1
    8     7     9    1
    9     7    10    1
   10    10    11    1
   11    10    12    1
   12    10    13    1
   13    13    14    1
   14    13    15    1
   15    15    16    1
   16    15    17    1
   17     1    18    1
   18    15    18    1
   19    18    19    1
   20    18    20    1
   21    13    21    1
   22    21    22    1
@<TRIPOS>SUBSTRUCTURE
       1 MOL1            1 RESIDUE      1      MOL     
@<SCITEGIC>MOL_PROPERTY
VConf Rank
SciTegic.value.IntegerValue
665

@<SCITEGIC>MOL_PROPERTY
Conf_Id
SciTegic.value.IntegerValue
141

@<SCITEGIC>MOL_PROPERTY
Delta U+W
SciTegic.value.DoubleValue
0.000

@<SCITEGIC>MOL_PROPERTY
U+W
SciTegic.value.DoubleValue
6.423

@<SCITEGIC>MOL_PROPERTY
Grad RMS
SciTegic.value.DoubleValue
0.000000

@<SCITEGIC>MOL_PROPERTY
U
SciTegic.value.DoubleValue
8.781

@<SCITEGIC>MOL_PROPERTY
W
SciTegic.value.DoubleValue
-2.358

@<SCITEGIC>MOL_PROPERTY
W(PB)
SciTegic.value.DoubleValue
-4.373

@<SCITEGIC>MOL_PROPERTY
W(SA)
SciTegic.value.DoubleValue
2.015

@<SCITEGIC>MOL_PROPERTY
Valence
SciTegic.value.DoubleValue
13.328

@<SCITEGIC>MOL_PROPERTY
Coulomb
SciTegic.value.DoubleValue
-8.387

@<SCITEGIC>MOL_PROPERTY
VdW
SciTegic.value.DoubleValue
3.840

@<SCITEGIC>MOL_PROPERTY
VdW6
SciTegic.value.DoubleValue
-9.744

@<SCITEGIC>MOL_PROPERTY
VdW12
SciTegic.value.DoubleValue
13.584

@<SCITEGIC>MOL_PROPERTY
Bond
SciTegic.value.DoubleValue
0.436

@<SCITEGIC>MOL_PROPERTY
Angle
SciTegic.value.DoubleValue
3.478

@<SCITEGIC>MOL_PROPERTY
Pdih
SciTegic.value.DoubleValue
9.415

@<SCITEGIC>MOL_PROPERTY
Idih
SciTegic.value.DoubleValue
0.000

@<SCITEGIC>MOL_PROPERTY
Tether
SciTegic.value.DoubleValue
0.000

@<TRIPOS>MOLECULE
guest-5_confgen4.mol2 : confsearch ligand conformer 666
          22          22           1
SMALL
USER_CHARGES
 
@<TRIPOS>ATOM
       1    C1      20.269428   17.991454   23.255353 C.3        1 MOL1        -0.1685
       2    H1      20.990681   18.407631   23.971732 H          1 MOL1         0.0832
       3    H2      20.216618   16.914989   23.468279 H          1 MOL1         0.0832
       4    C2      20.773932   18.158394   21.801647 C.3        1 MOL1        -0.1685
       5    H3      21.646345   17.506603   21.657011 H          1 MOL1         0.0832
       6    H4      20.007753   17.790181   21.105753 H          1 MOL1         0.0832
       7    C3      21.176122   19.597435   21.404490 C.3        1 MOL1        -0.1685
       8    H5      21.448609   19.595436   20.340266 H          1 MOL1         0.0832
       9    H6      22.087633   19.884282   21.946548 H          1 MOL1         0.0832
      10    C4      20.081925   20.668863   21.632425 C.3        1 MOL1        -0.1761
      11    H7      20.395544   21.580560   21.107128 H          1 MOL1         0.0832
      12    H8      19.135407   20.360202   21.170008 H          1 MOL1         0.0832
      13    C5      19.871855   20.998306   23.127405 C.3        1 MOL1         0.1218
      14    H9      20.838152   20.895067   23.641657 H          1 MOL1         0.0789
      15    C6      18.841843   20.096364   23.844951 C.3        1 MOL1        -0.1761
      16    H10     19.009292   20.196820   24.925098 H          1 MOL1         0.0832
      17    H11     17.830244   20.481965   23.660317 H          1 MOL1         0.0832
      18    C7      18.861302   18.591760   23.476394 C.3        1 MOL1        -0.1685
      19    H12     18.360051   18.038419   24.282238 H          1 MOL1         0.0832
      20    H13     18.248465   18.425069   22.580093 H          1 MOL1         0.0832
      21    O1      19.432946   22.346396   23.242431 O.3        1 MOL1        -0.5509
      22    H14     20.134910   22.906313   22.849548 H          1 MOL1         0.3779
@<TRIPOS>BOND
    1     1     2    1
    2     1     3    1
    3     1     4    1
    4     4     5    1
    5     4     6    1
    6     4     7    1
    7     7     8    1
    8     7     9    1
    9     7    10    1
   10    10    11    1
   11    10    12    1
   12    10    13    1
   13    13    14    1
   14    13    15    1
   15    15    16    1
   16    15    17    1
   17     1    18    1
   18    15    18    1
   19    18    19    1
   20    18    20    1
   21    13    21    1
   22    21    22    1
@<TRIPOS>SUBSTRUCTURE
       1 MOL1            1 RESIDUE      1      MOL     
@<SCITEGIC>MOL_PROPERTY
VConf Rank
SciTegic.value.IntegerValue
666

@<SCITEGIC>MOL_PROPERTY
Conf_Id
SciTegic.value.IntegerValue
144

@<SCITEGIC>MOL_PROPERTY
Delta U+W
SciTegic.value.DoubleValue
-3.291

@<SCITEGIC>MOL_PROPERTY
U+W
SciTegic.value.DoubleValue
3.132

@<SCITEGIC>MOL_PROPERTY
Grad RMS
SciTegic.value.DoubleValue
0.000000

@<SCITEGIC>MOL_PROPERTY
U
SciTegic.value.DoubleValue
5.411

@<SCITEGIC>MOL_PROPERTY
W
SciTegic.value.DoubleValue
-2.279

@<SCITEGIC>MOL_PROPERTY
W(PB)
SciTegic.value.DoubleValue
-4.300

@<SCITEGIC>MOL_PROPERTY
W(SA)
SciTegic.value.DoubleValue
2.021

@<SCITEGIC>MOL_PROPERTY
Valence
SciTegic.value.DoubleValue
11.909

@<SCITEGIC>MOL_PROPERTY
Coulomb
SciTegic.value.DoubleValue
-8.733

@<SCITEGIC>MOL_PROPERTY
VdW
SciTegic.value.DoubleValue
2.236

@<SCITEGIC>MOL_PROPERTY
VdW6
SciTegic.value.DoubleValue
-8.936

@<SCITEGIC>MOL_PROPERTY
VdW12
SciTegic.value.DoubleValue
11.172

@<SCITEGIC>MOL_PROPERTY
Bond
SciTegic.value.DoubleValue
0.223

@<SCITEGIC>MOL_PROPERTY
Angle
SciTegic.value.DoubleValue
2.457

@<SCITEGIC>MOL_PROPERTY
Pdih
SciTegic.value.DoubleValue
9.228

@<SCITEGIC>MOL_PROPERTY
Idih
SciTegic.value.DoubleValue
0.000

@<SCITEGIC>MOL_PROPERTY
Tether
SciTegic.value.DoubleValue
0.000

@<TRIPOS>MOLECULE
guest-5_confgen4.mol2 : confsearch ligand conformer 667
          22          22           1
SMALL
USER_CHARGES
 
@<TRIPOS>ATOM
       1    C1      18.831182   20.478764   23.610909 C.3        1 MOL1        -0.1685
       2    H1      18.173939   21.265842   24.005156 H          1 MOL1         0.0832
       3    H2      18.751252   19.636758   24.311850 H          1 MOL1         0.0832
       4    C2      20.274679   21.033104   23.577756 C.3        1 MOL1        -0.1685
       5    H3      20.416015   21.630565   22.666801 H          1 MOL1         0.0832
       6    H4      20.404630   21.736069   24.411993 H          1 MOL1         0.0832
       7    C3      21.390460   19.964834   23.676517 C.3        1 MOL1        -0.1685
       8    H5      21.557189   19.718902   24.734172 H          1 MOL1         0.0832
       9    H6      22.328201   20.415735   23.323888 H          1 MOL1         0.0832
      10    C4      21.146012   18.643361   22.907039 C.3        1 MOL1        -0.1761
      11    H7      22.115116   18.140487   22.786943 H          1 MOL1         0.0832
      12    H8      20.537428   17.972497   23.527089 H          1 MOL1         0.0832
      13    C5      20.476235   18.808907   21.524438 C.3        1 MOL1         0.1218
      14    H9      20.817413   19.744899   21.059695 H          1 MOL1         0.0789
      15    C6      18.932942   18.804550   21.609325 C.3        1 MOL1        -0.1761
      16    H10     18.525523   18.669244   20.598468 H          1 MOL1         0.0832
      17    H11     18.600416   17.933883   22.189370 H          1 MOL1         0.0832
      18    C7      18.304508   20.084293   22.210195 C.3        1 MOL1        -0.1685
      19    H12     18.451661   20.922701   21.515687 H          1 MOL1         0.0832
      20    H13     17.217921   19.935670   22.273666 H          1 MOL1         0.0832
      21    O1      20.871063   17.718060   20.703235 O.3        1 MOL1        -0.5509
      22    H14     20.552288   16.906503   21.149237 H          1 MOL1         0.3779
@<TRIPOS>BOND
    1     1     2    1
    2     1     3    1
    3     1     4    1
    4     4     5    1
    5     4     6    1
    6     4     7    1
    7     7     8    1
    8     7     9    1
    9     7    10    1
   10    10    11    1
   11    10    12    1
   12    10    13    1
   13    13    14    1
   14    13    15    1
   15    15    16    1
   16    15    17    1
   17     1    18    1
   18    15    18    1
   19    18    19    1
   20    18    20    1
   21    13    21    1
   22    21    22    1
@<TRIPOS>SUBSTRUCTURE
       1 MOL1            1 RESIDUE      1      MOL     
@<SCITEGIC>MOL_PROPERTY
VConf Rank
SciTegic.value.IntegerValue
667

@<SCITEGIC>MOL_PROPERTY
Conf_Id
SciTegic.value.IntegerValue
76

@<SCITEGIC>MOL_PROPERTY
Delta U+W
SciTegic.value.DoubleValue
-3.175

@<SCITEGIC>MOL_PROPERTY
U+W
SciTegic.value.DoubleValue
3.248

@<SCITEGIC>MOL_PROPERTY
Grad RMS
SciTegic.value.DoubleValue
0.000000

@<SCITEGIC>MOL_PROPERTY
U
SciTegic.value.DoubleValue
5.336

@<SCITEGIC>MOL_PROPERTY
W
SciTegic.value.DoubleValue
-2.088

@<SCITEGIC>MOL_PROPERTY
W(PB)
SciTegic.value.DoubleValue
-4.098

@<SCITEGIC>MOL_PROPERTY
W(SA)
SciTegic.value.DoubleValue
2.010

@<SCITEGIC>MOL_PROPERTY
Valence
SciTegic.value.DoubleValue
12.390

@<SCITEGIC>MOL_PROPERTY
Coulomb
SciTegic.value.DoubleValue
-9.270

@<SCITEGIC>MOL_PROPERTY
VdW
SciTegic.value.DoubleValue
2.216

@<SCITEGIC>MOL_PROPERTY
VdW6
SciTegic.value.DoubleValue
-8.967

@<SCITEGIC>MOL_PROPERTY
VdW12
SciTegic.value.DoubleValue
11.183

@<SCITEGIC>MOL_PROPERTY
Bond
SciTegic.value.DoubleValue
0.218

@<SCITEGIC>MOL_PROPERTY
Angle
SciTegic.value.DoubleValue
2.426

@<SCITEGIC>MOL_PROPERTY
Pdih
SciTegic.value.DoubleValue
9.745

@<SCITEGIC>MOL_PROPERTY
Idih
SciTegic.value.DoubleValue
0.000

@<SCITEGIC>MOL_PROPERTY
Tether
SciTegic.value.DoubleValue
0.000

@<TRIPOS>MOLECULE
guest-5_confgen4.mol2 : confsearch ligand conformer 668
          22          22           1
SMALL
USER_CHARGES
 
@<TRIPOS>ATOM
       1    C1      21.832198   19.768919   22.085397 C.3        1 MOL1        -0.1685
       2    H1      22.163693   19.967691   21.057106 H          1 MOL1         0.0832
       3    H2      22.740267   19.801085   22.702805 H          1 MOL1         0.0832
       4    C2      21.241943   18.339327   22.135802 C.3        1 MOL1        -0.1685
       5    H3      20.706101   18.130741   21.199937 H          1 MOL1         0.0832
       6    H4      22.078302   17.627502   22.160119 H          1 MOL1         0.0832
       7    C3      20.308612   18.058753   23.336516 C.3        1 MOL1        -0.1685
       8    H5      20.671486   18.561954   24.243129 H          1 MOL1         0.0832
       9    H6      20.343207   16.982156   23.551069 H          1 MOL1         0.0832
      10    C4      18.832786   18.435646   23.050216 C.3        1 MOL1        -0.1761
      11    H7      18.520692   17.977553   22.102978 H          1 MOL1         0.0832
      12    H8      18.198734   17.978931   23.821452 H          1 MOL1         0.0832
      13    C5      18.510660   19.946615   23.002208 C.3        1 MOL1         0.1218
      14    H9      17.485908   20.040125   22.614605 H          1 MOL1         0.0789
      15    C6      19.426357   20.786729   22.076900 C.3        1 MOL1        -0.1761
      16    H10     19.391257   20.386158   21.055534 H          1 MOL1         0.0832
      17    H11     18.997677   21.795227   22.014025 H          1 MOL1         0.0832
      18    C7      20.899024   20.913917   22.546254 C.3        1 MOL1        -0.1685
      19    H12     21.311045   21.858306   22.165741 H          1 MOL1         0.0832
      20    H13     20.939824   20.998940   23.640122 H          1 MOL1         0.0832
      21    O1      18.534470   20.474306   24.324706 O.3        1 MOL1        -0.5509
      22    H14     18.377977   21.437227   24.243605 H          1 MOL1         0.3779
@<TRIPOS>BOND
    1     1     2    1
    2     1     3    1
    3     1     4    1
    4     4     5    1
    5     4     6    1
    6     4     7    1
    7     7     8    1
    8     7     9    1
    9     7    10    1
   10    10    11    1
   11    10    12    1
   12    10    13    1
   13    13    14    1
   14    13    15    1
   15    15    16    1
   16    15    17    1
   17     1    18    1
   18    15    18    1
   19    18    19    1
   20    18    20    1
   21    13    21    1
   22    21    22    1
@<TRIPOS>SUBSTRUCTURE
       1 MOL1            1 RESIDUE      1      MOL     
@<SCITEGIC>MOL_PROPERTY
VConf Rank
SciTegic.value.IntegerValue
668

@<SCITEGIC>MOL_PROPERTY
Conf_Id
SciTegic.value.IntegerValue
95

@<SCITEGIC>MOL_PROPERTY
Delta U+W
SciTegic.value.DoubleValue
-2.289

@<SCITEGIC>MOL_PROPERTY
U+W
SciTegic.value.DoubleValue
4.134

@<SCITEGIC>MOL_PROPERTY
Grad RMS
SciTegic.value.DoubleValue
0.000000

@<SCITEGIC>MOL_PROPERTY
U
SciTegic.value.DoubleValue
6.373

@<SCITEGIC>MOL_PROPERTY
W
SciTegic.value.DoubleValue
-2.240

@<SCITEGIC>MOL_PROPERTY
W(PB)
SciTegic.value.DoubleValue
-4.254

@<SCITEGIC>MOL_PROPERTY
W(SA)
SciTegic.value.DoubleValue
2.015

@<SCITEGIC>MOL_PROPERTY
Valence
SciTegic.value.DoubleValue
12.093

@<SCITEGIC>MOL_PROPERTY
Coulomb
SciTegic.value.DoubleValue
-8.058

@<SCITEGIC>MOL_PROPERTY
VdW
SciTegic.value.DoubleValue
2.339

@<SCITEGIC>MOL_PROPERTY
VdW6
SciTegic.value.DoubleValue
-9.683

@<SCITEGIC>MOL_PROPERTY
VdW12
SciTegic.value.DoubleValue
12.022

@<SCITEGIC>MOL_PROPERTY
Bond
SciTegic.value.DoubleValue
0.268

@<SCITEGIC>MOL_PROPERTY
Angle
SciTegic.value.DoubleValue
3.005

@<SCITEGIC>MOL_PROPERTY
Pdih
SciTegic.value.DoubleValue
8.820

@<SCITEGIC>MOL_PROPERTY
Idih
SciTegic.value.DoubleValue
0.000

@<SCITEGIC>MOL_PROPERTY
Tether
SciTegic.value.DoubleValue
0.000

@<TRIPOS>MOLECULE
guest-5_confgen4.mol2 : confsearch ligand conformer 669
          22          22           1
SMALL
USER_CHARGES
 
@<TRIPOS>ATOM
       1    C1      20.598528   19.374630   20.895204 C.3        1 MOL1        -0.1685
       2    H1      20.124727   19.762543   19.983179 H          1 MOL1         0.0832
       3    H2      21.493503   18.833554   20.558979 H          1 MOL1         0.0832
       4    C2      19.624932   18.370220   21.556717 C.3        1 MOL1        -0.1685
       5    H3      18.592100   18.718865   21.421863 H          1 MOL1         0.0832
       6    H4      19.688852   17.422326   21.005163 H          1 MOL1         0.0832
       7    C3      19.884372   18.096890   23.056549 C.3        1 MOL1        -0.1685
       8    H5      20.961439   18.074559   23.271602 H          1 MOL1         0.0832
       9    H6      19.505956   17.092487   23.289793 H          1 MOL1         0.0832
      10    C4      19.154931   19.103099   23.982168 C.3        1 MOL1        -0.1761
      11    H7      18.100099   19.164736   23.684802 H          1 MOL1         0.0832
      12    H8      19.146375   18.698664   25.002629 H          1 MOL1         0.0832
      13    C5      19.739620   20.533340   24.029986 C.3        1 MOL1         0.1218
      14    H9      19.017638   21.153351   24.580829 H          1 MOL1         0.0789
      15    C6      19.953158   21.203178   22.649387 C.3        1 MOL1        -0.1761
      16    H10     19.004835   21.235295   22.097898 H          1 MOL1         0.0832
      17    H11     20.227262   22.249603   22.835642 H          1 MOL1         0.0832
      18    C7      21.059884   20.564351   21.770467 C.3        1 MOL1        -0.1685
      19    H12     21.469080   21.335029   21.103510 H          1 MOL1         0.0832
      20    H13     21.902103   20.249979   22.400908 H          1 MOL1         0.0832
      21    O1      20.961689   20.519710   24.761597 O.3        1 MOL1        -0.5509
      22    H14     20.775254   20.073409   25.612621 H          1 MOL1         0.3779
@<TRIPOS>BOND
    1     1     2    1
    2     1     3    1
    3     1     4    1
    4     4     5    1
    5     4     6    1
    6     4     7    1
    7     7     8    1
    8     7     9    1
    9     7    10    1
   10    10    11    1
   11    10    12    1
   12    10    13    1
   13    13    14    1
   14    13    15    1
   15    15    16    1
   16    15    17    1
   17     1    18    1
   18    15    18    1
   19    18    19    1
   20    18    20    1
   21    13    21    1
   22    21    22    1
@<TRIPOS>SUBSTRUCTURE
       1 MOL1            1 RESIDUE      1      MOL     
@<SCITEGIC>MOL_PROPERTY
VConf Rank
SciTegic.value.IntegerValue
669

@<SCITEGIC>MOL_PROPERTY
Conf_Id
SciTegic.value.IntegerValue
41

@<SCITEGIC>MOL_PROPERTY
Delta U+W
SciTegic.value.DoubleValue
-2.114

@<SCITEGIC>MOL_PROPERTY
U+W
SciTegic.value.DoubleValue
4.310

@<SCITEGIC>MOL_PROPERTY
Grad RMS
SciTegic.value.DoubleValue
0.000000

@<SCITEGIC>MOL_PROPERTY
U
SciTegic.value.DoubleValue
6.598

@<SCITEGIC>MOL_PROPERTY
W
SciTegic.value.DoubleValue
-2.289

@<SCITEGIC>MOL_PROPERTY
W(PB)
SciTegic.value.DoubleValue
-4.294

@<SCITEGIC>MOL_PROPERTY
W(SA)
SciTegic.value.DoubleValue
2.005

@<SCITEGIC>MOL_PROPERTY
Valence
SciTegic.value.DoubleValue
12.082

@<SCITEGIC>MOL_PROPERTY
Coulomb
SciTegic.value.DoubleValue
-7.801

@<SCITEGIC>MOL_PROPERTY
VdW
SciTegic.value.DoubleValue
2.317

@<SCITEGIC>MOL_PROPERTY
VdW6
SciTegic.value.DoubleValue
-9.658

@<SCITEGIC>MOL_PROPERTY
VdW12
SciTegic.value.DoubleValue
11.975

@<SCITEGIC>MOL_PROPERTY
Bond
SciTegic.value.DoubleValue
0.267

@<SCITEGIC>MOL_PROPERTY
Angle
SciTegic.value.DoubleValue
3.051

@<SCITEGIC>MOL_PROPERTY
Pdih
SciTegic.value.DoubleValue
8.764

@<SCITEGIC>MOL_PROPERTY
Idih
SciTegic.value.DoubleValue
0.000

@<SCITEGIC>MOL_PROPERTY
Tether
SciTegic.value.DoubleValue
0.000

@<TRIPOS>MOLECULE
guest-5_confgen4.mol2 : confsearch ligand conformer 670
          22          22           1
SMALL
USER_CHARGES
 
@<TRIPOS>ATOM
       1    C1      21.612512   19.390558   23.365818 C.3        1 MOL1        -0.1685
       2    H1      22.593467   19.044424   23.718618 H          1 MOL1         0.0832
       3    H2      21.681326   20.484405   23.288748 H          1 MOL1         0.0832
       4    C2      20.558834   18.982195   24.419567 C.3        1 MOL1        -0.1685
       5    H3      20.460978   17.888251   24.436679 H          1 MOL1         0.0832
       6    H4      20.928508   19.267023   25.413938 H          1 MOL1         0.0832
       7    C3      19.166949   19.620971   24.219956 C.3        1 MOL1        -0.1685
       8    H5      19.228985   20.700118   24.413561 H          1 MOL1         0.0832
       9    H6      18.497360   19.221597   24.993439 H          1 MOL1         0.0832
      10    C4      18.517070   19.366795   22.832788 C.3        1 MOL1        -0.1761
      11    H7      18.524847   18.293523   22.604129 H          1 MOL1         0.0832
      12    H8      17.458286   19.646467   22.905894 H          1 MOL1         0.0832
      13    C5      19.118389   20.162110   21.645387 C.3        1 MOL1         0.1218
      14    H9      18.376577   20.126816   20.834371 H          1 MOL1         0.0789
      15    C6      20.434724   19.597899   21.050351 C.3        1 MOL1        -0.1761
      16    H10     20.174768   18.968704   20.189190 H          1 MOL1         0.0832
      17    H11     21.023303   20.426255   20.634572 H          1 MOL1         0.0832
      18    C7      21.346766   18.760418   21.980783 C.3        1 MOL1        -0.1685
      19    H12     20.928081   17.752607   22.105018 H          1 MOL1         0.0832
      20    H13     22.308430   18.618537   21.469167 H          1 MOL1         0.0832
      21    O1      19.301070   21.529461   22.003018 O.3        1 MOL1        -0.5509
      22    H14     19.642657   21.986496   21.207815 H          1 MOL1         0.3779
@<TRIPOS>BOND
    1     1     2    1
    2     1     3    1
    3     1     4    1
    4     4     5    1
    5     4     6    1
    6     4     7    1
    7     7     8    1
    8     7     9    1
    9     7    10    1
   10    10    11    1
   11    10    12    1
   12    10    13    1
   13    13    14    1
   14    13    15    1
   15    15    16    1
   16    15    17    1
   17     1    18    1
   18    15    18    1
   19    18    19    1
   20    18    20    1
   21    13    21    1
   22    21    22    1
@<TRIPOS>SUBSTRUCTURE
       1 MOL1            1 RESIDUE      1      MOL     
@<SCITEGIC>MOL_PROPERTY
VConf Rank
SciTegic.value.IntegerValue
670

@<SCITEGIC>MOL_PROPERTY
Conf_Id
SciTegic.value.IntegerValue
104

@<SCITEGIC>MOL_PROPERTY
Delta U+W
SciTegic.value.DoubleValue
-1.172

@<SCITEGIC>MOL_PROPERTY
U+W
SciTegic.value.DoubleValue
5.252

@<SCITEGIC>MOL_PROPERTY
Grad RMS
SciTegic.value.DoubleValue
0.000000

@<SCITEGIC>MOL_PROPERTY
U
SciTegic.value.DoubleValue
7.482

@<SCITEGIC>MOL_PROPERTY
W
SciTegic.value.DoubleValue
-2.230

@<SCITEGIC>MOL_PROPERTY
W(PB)
SciTegic.value.DoubleValue
-4.220

@<SCITEGIC>MOL_PROPERTY
W(SA)
SciTegic.value.DoubleValue
1.990

@<SCITEGIC>MOL_PROPERTY
Valence
SciTegic.value.DoubleValue
12.309

@<SCITEGIC>MOL_PROPERTY
Coulomb
SciTegic.value.DoubleValue
-7.084

@<SCITEGIC>MOL_PROPERTY
VdW
SciTegic.value.DoubleValue
2.258

@<SCITEGIC>MOL_PROPERTY
VdW6
SciTegic.value.DoubleValue
-9.770

@<SCITEGIC>MOL_PROPERTY
VdW12
SciTegic.value.DoubleValue
12.028

@<SCITEGIC>MOL_PROPERTY
Bond
SciTegic.value.DoubleValue
0.284

@<SCITEGIC>MOL_PROPERTY
Angle
SciTegic.value.DoubleValue
3.491

@<SCITEGIC>MOL_PROPERTY
Pdih
SciTegic.value.DoubleValue
8.535

@<SCITEGIC>MOL_PROPERTY
Idih
SciTegic.value.DoubleValue
0.000

@<SCITEGIC>MOL_PROPERTY
Tether
SciTegic.value.DoubleValue
0.000

@<TRIPOS>MOLECULE
guest-5_confgen4.mol2 : confsearch ligand conformer 671
          22          22           1
SMALL
USER_CHARGES
 
@<TRIPOS>ATOM
       1    C1      19.822579   20.894448   23.638434 C.3        1 MOL1        -0.1685
       2    H1      20.808679   21.322939   23.413745 H          1 MOL1         0.0832
       3    H2      19.351639   21.580062   24.356130 H          1 MOL1         0.0832
       4    C2      19.962667   19.515910   24.323630 C.3        1 MOL1        -0.1685
       5    H3      20.196133   19.674603   25.385495 H          1 MOL1         0.0832
       6    H4      18.989665   19.007392   24.319844 H          1 MOL1         0.0832
       7    C3      21.050291   18.581358   23.735955 C.3        1 MOL1        -0.1685
       8    H5      20.773487   17.541819   23.959679 H          1 MOL1         0.0832
       9    H6      21.988963   18.755990   24.279395 H          1 MOL1         0.0832
      10    C4      21.356779   18.711808   22.219297 C.3        1 MOL1        -0.1761
      11    H7      22.001957   19.585015   22.057400 H          1 MOL1         0.0832
      12    H8      21.963105   17.846868   21.920554 H          1 MOL1         0.0832
      13    C5      20.146805   18.804170   21.261480 C.3        1 MOL1         0.1218
      14    H9      20.494213   18.495343   20.265079 H          1 MOL1         0.0789
      15    C6      19.602894   20.243622   21.118627 C.3        1 MOL1        -0.1761
      16    H10     20.422675   20.898874   20.796655 H          1 MOL1         0.0832
      17    H11     18.875618   20.254513   20.296316 H          1 MOL1         0.0832
      18    C7      18.933030   20.857337   22.372990 C.3        1 MOL1        -0.1685
      19    H12     18.639408   21.887032   22.127580 H          1 MOL1         0.0832
      20    H13     17.995966   20.327622   22.591601 H          1 MOL1         0.0832
      21    O1      19.111096   17.929095   21.680671 O.3        1 MOL1        -0.5509
      22    H14     18.916059   18.211702   22.596302 H          1 MOL1         0.3779
@<TRIPOS>BOND
    1     1     2    1
    2     1     3    1
    3     1     4    1
    4     4     5    1
    5     4     6    1
    6     4     7    1
    7     7     8    1
    8     7     9    1
    9     7    10    1
   10    10    11    1
   11    10    12    1
   12    10    13    1
   13    13    14    1
   14    13    15    1
   15    15    16    1
   16    15    17    1
   17     1    18    1
   18    15    18    1
   19    18    19    1
   20    18    20    1
   21    13    21    1
   22    21    22    1
@<TRIPOS>SUBSTRUCTURE
       1 MOL1            1 RESIDUE      1      MOL     
@<SCITEGIC>MOL_PROPERTY
VConf Rank
SciTegic.value.IntegerValue
671

@<SCITEGIC>MOL_PROPERTY
Conf_Id
SciTegic.value.IntegerValue
99

@<SCITEGIC>MOL_PROPERTY
Delta U+W
SciTegic.value.DoubleValue
-3.852

@<SCITEGIC>MOL_PROPERTY
U+W
SciTegic.value.DoubleValue
2.572

@<SCITEGIC>MOL_PROPERTY
Grad RMS
SciTegic.value.DoubleValue
0.000000

@<SCITEGIC>MOL_PROPERTY
U
SciTegic.value.DoubleValue
3.922

@<SCITEGIC>MOL_PROPERTY
W
SciTegic.value.DoubleValue
-1.350

@<SCITEGIC>MOL_PROPERTY
W(PB)
SciTegic.value.DoubleValue
-3.345

@<SCITEGIC>MOL_PROPERTY
W(SA)
SciTegic.value.DoubleValue
1.995

@<SCITEGIC>MOL_PROPERTY
Valence
SciTegic.value.DoubleValue
12.571

@<SCITEGIC>MOL_PROPERTY
Coulomb
SciTegic.value.DoubleValue
-10.581

@<SCITEGIC>MOL_PROPERTY
VdW
SciTegic.value.DoubleValue
1.932

@<SCITEGIC>MOL_PROPERTY
VdW6
SciTegic.value.DoubleValue
-10.483

@<SCITEGIC>MOL_PROPERTY
VdW12
SciTegic.value.DoubleValue
12.415

@<SCITEGIC>MOL_PROPERTY
Bond
SciTegic.value.DoubleValue
0.268

@<SCITEGIC>MOL_PROPERTY
Angle
SciTegic.value.DoubleValue
3.728

@<SCITEGIC>MOL_PROPERTY
Pdih
SciTegic.value.DoubleValue
8.575

@<SCITEGIC>MOL_PROPERTY
Idih
SciTegic.value.DoubleValue
0.000

@<SCITEGIC>MOL_PROPERTY
Tether
SciTegic.value.DoubleValue
0.000

@<TRIPOS>MOLECULE
guest-5_confgen4.mol2 : confsearch ligand conformer 672
          22          22           1
SMALL
USER_CHARGES
 
@<TRIPOS>ATOM
       1    C1      19.066147   19.365726   23.984994 C.3        1 MOL1        -0.1685
       2    H1      18.151651   19.586507   24.552660 H          1 MOL1         0.0832
       3    H2      19.577564   18.585498   24.564435 H          1 MOL1         0.0832
       4    C2      19.930054   20.660418   23.949129 C.3        1 MOL1        -0.1685
       5    H3      19.389560   21.441534   24.501411 H          1 MOL1         0.0832
       6    H4      20.861490   20.509506   24.511007 H          1 MOL1         0.0832
       7    C3      20.258180   21.218951   22.540895 C.3        1 MOL1        -0.1685
       8    H5      20.695169   22.219929   22.658411 H          1 MOL1         0.0832
       9    H6      19.328398   21.387832   21.983621 H          1 MOL1         0.0832
      10    C4      21.237380   20.370685   21.682733 C.3        1 MOL1        -0.1761
      11    H7      21.082870   20.631340   20.627779 H          1 MOL1         0.0832
      12    H8      22.263470   20.687465   21.912483 H          1 MOL1         0.0832
      13    C5      21.183523   18.829085   21.819584 C.3        1 MOL1         0.1218
      14    H9      21.771219   18.413935   20.988298 H          1 MOL1         0.0789
      15    C6      19.778125   18.183160   21.743544 C.3        1 MOL1        -0.1761
      16    H10     19.451231   18.185046   20.695747 H          1 MOL1         0.0832
      17    H11     19.886075   17.123732   22.011789 H          1 MOL1         0.0832
      18    C7      18.640891   18.794829   22.608044 C.3        1 MOL1        -0.1685
      19    H12     18.113646   19.566809   22.033913 H          1 MOL1         0.0832
      20    H13     17.887963   18.012545   22.774944 H          1 MOL1         0.0832
      21    O1      21.824005   18.435263   23.022883 O.3        1 MOL1        -0.5509
      22    H14     21.267258   18.826107   23.725882 H          1 MOL1         0.3779
@<TRIPOS>BOND
    1     1     2    1
    2     1     3    1
    3     1     4    1
    4     4     5    1
    5     4     6    1
    6     4     7    1
    7     7     8    1
    8     7     9    1
    9     7    10    1
   10    10    11    1
   11    10    12    1
   12    10    13    1
   13    13    14    1
   14    13    15    1
   15    15    16    1
   16    15    17    1
   17     1    18    1
   18    15    18    1
   19    18    19    1
   20    18    20    1
   21    13    21    1
   22    21    22    1
@<TRIPOS>SUBSTRUCTURE
       1 MOL1            1 RESIDUE      1      MOL     
@<SCITEGIC>MOL_PROPERTY
VConf Rank
SciTegic.value.IntegerValue
672

@<SCITEGIC>MOL_PROPERTY
Conf_Id
SciTegic.value.IntegerValue
98

@<SCITEGIC>MOL_PROPERTY
Delta U+W
SciTegic.value.DoubleValue
0.930

@<SCITEGIC>MOL_PROPERTY
U+W
SciTegic.value.DoubleValue
7.353

@<SCITEGIC>MOL_PROPERTY
Grad RMS
SciTegic.value.DoubleValue
0.000000

@<SCITEGIC>MOL_PROPERTY
U
SciTegic.value.DoubleValue
8.455

@<SCITEGIC>MOL_PROPERTY
W
SciTegic.value.DoubleValue
-1.102

@<SCITEGIC>MOL_PROPERTY
W(PB)
SciTegic.value.DoubleValue
-3.101

@<SCITEGIC>MOL_PROPERTY
W(SA)
SciTegic.value.DoubleValue
2.000

@<SCITEGIC>MOL_PROPERTY
Valence
SciTegic.value.DoubleValue
15.601

@<SCITEGIC>MOL_PROPERTY
Coulomb
SciTegic.value.DoubleValue
-10.573

@<SCITEGIC>MOL_PROPERTY
VdW
SciTegic.value.DoubleValue
3.427

@<SCITEGIC>MOL_PROPERTY
VdW6
SciTegic.value.DoubleValue
-11.360

@<SCITEGIC>MOL_PROPERTY
VdW12
SciTegic.value.DoubleValue
14.787

@<SCITEGIC>MOL_PROPERTY
Bond
SciTegic.value.DoubleValue
0.471

@<SCITEGIC>MOL_PROPERTY
Angle
SciTegic.value.DoubleValue
5.445

@<SCITEGIC>MOL_PROPERTY
Pdih
SciTegic.value.DoubleValue
9.685

@<SCITEGIC>MOL_PROPERTY
Idih
SciTegic.value.DoubleValue
0.000

@<SCITEGIC>MOL_PROPERTY
Tether
SciTegic.value.DoubleValue
0.000

@<TRIPOS>MOLECULE
guest-5_confgen4.mol2 : confsearch ligand conformer 673
          22          22           1
SMALL
USER_CHARGES
 
@<TRIPOS>ATOM
       1    C1      20.615953   19.043307   24.189096 C.3        1 MOL1        -0.1685
       2    H1      21.231905   19.951774   24.180571 H          1 MOL1         0.0832
       3    H2      20.813835   18.573787   25.162290 H          1 MOL1         0.0832
       4    C2      21.088518   18.079411   23.071175 C.3        1 MOL1        -0.1685
       5    H3      22.144212   17.843329   23.262616 H          1 MOL1         0.0832
       6    H4      20.550301   17.125625   23.156258 H          1 MOL1         0.0832
       7    C3      20.967384   18.605825   21.614172 C.3        1 MOL1        -0.1685
       8    H5      20.102754   18.145742   21.118438 H          1 MOL1         0.0832
       9    H6      21.839470   18.251093   21.048251 H          1 MOL1         0.0832
      10    C4      20.880806   20.149106   21.478160 C.3        1 MOL1        -0.1761
      11    H7      21.712055   20.606166   22.029292 H          1 MOL1         0.0832
      12    H8      21.060558   20.413352   20.427326 H          1 MOL1         0.0832
      13    C5      19.543130   20.798519   21.939415 C.3        1 MOL1         0.1218
      14    H9      19.787239   21.673624   22.558825 H          1 MOL1         0.0789
      15    C6      18.590462   19.883905   22.749454 C.3        1 MOL1        -0.1761
      16    H10     17.640932   20.411399   22.908197 H          1 MOL1         0.0832
      17    H11     18.330081   19.001438   22.152760 H          1 MOL1         0.0832
      18    C7      19.120104   19.433186   24.133700 C.3        1 MOL1        -0.1685
      19    H12     18.950407   20.240415   24.859233 H          1 MOL1         0.0832
      20    H13     18.513591   18.585028   24.479305 H          1 MOL1         0.0832
      21    O1      18.834257   21.237723   20.786256 O.3        1 MOL1        -0.5509
      22    H14     18.027299   21.692047   21.106547 H          1 MOL1         0.3779
@<TRIPOS>BOND
    1     1     2    1
    2     1     3    1
    3     1     4    1
    4     4     5    1
    5     4     6    1
    6     4     7    1
    7     7     8    1
    8     7     9    1
    9     7    10    1
   10    10    11    1
   11    10    12    1
   12    10    13    1
   13    13    14    1
   14    13    15    1
   15    15    16    1
   16    15    17    1
   17     1    18    1
   18    15    18    1
   19    18    19    1
   20    18    20    1
   21    13    21    1
   22    21    22    1
@<TRIPOS>SUBSTRUCTURE
       1 MOL1            1 RESIDUE      1      MOL     
@<SCITEGIC>MOL_PROPERTY
VConf Rank
SciTegic.value.IntegerValue
673

@<SCITEGIC>MOL_PROPERTY
Conf_Id
SciTegic.value.IntegerValue
141

@<SCITEGIC>MOL_PROPERTY
Delta U+W
SciTegic.value.DoubleValue
0.000

@<SCITEGIC>MOL_PROPERTY
U+W
SciTegic.value.DoubleValue
6.423

@<SCITEGIC>MOL_PROPERTY
Grad RMS
SciTegic.value.DoubleValue
0.000000

@<SCITEGIC>MOL_PROPERTY
U
SciTegic.value.DoubleValue
8.781

@<SCITEGIC>MOL_PROPERTY
W
SciTegic.value.DoubleValue
-2.358

@<SCITEGIC>MOL_PROPERTY
W(PB)
SciTegic.value.DoubleValue
-4.373

@<SCITEGIC>MOL_PROPERTY
W(SA)
SciTegic.value.DoubleValue
2.015

@<SCITEGIC>MOL_PROPERTY
Valence
SciTegic.value.DoubleValue
13.328

@<SCITEGIC>MOL_PROPERTY
Coulomb
SciTegic.value.DoubleValue
-8.387

@<SCITEGIC>MOL_PROPERTY
VdW
SciTegic.value.DoubleValue
3.840

@<SCITEGIC>MOL_PROPERTY
VdW6
SciTegic.value.DoubleValue
-9.744

@<SCITEGIC>MOL_PROPERTY
VdW12
SciTegic.value.DoubleValue
13.584

@<SCITEGIC>MOL_PROPERTY
Bond
SciTegic.value.DoubleValue
0.436

@<SCITEGIC>MOL_PROPERTY
Angle
SciTegic.value.DoubleValue
3.478

@<SCITEGIC>MOL_PROPERTY
Pdih
SciTegic.value.DoubleValue
9.415

@<SCITEGIC>MOL_PROPERTY
Idih
SciTegic.value.DoubleValue
0.000

@<SCITEGIC>MOL_PROPERTY
Tether
SciTegic.value.DoubleValue
0.000

@<TRIPOS>MOLECULE
guest-5_confgen4.mol2 : confsearch ligand conformer 674
          22          22           1
SMALL
USER_CHARGES
 
@<TRIPOS>ATOM
       1    C1      19.094589   21.105490   22.479772 C.3        1 MOL1        -0.1685
       2    H1      19.735382   21.357168   21.623822 H          1 MOL1         0.0832
       3    H2      18.358865   21.917635   22.557470 H          1 MOL1         0.0832
       4    C2      19.910699   21.083795   23.794743 C.3        1 MOL1        -0.1685
       5    H3      20.220326   22.110920   24.031385 H          1 MOL1         0.0832
       6    H4      19.259665   20.770282   24.622236 H          1 MOL1         0.0832
       7    C3      21.173849   20.192576   23.772145 C.3        1 MOL1        -0.1685
       8    H5      21.622412   20.208919   24.774817 H          1 MOL1         0.0832
       9    H6      21.922190   20.637260   23.101920 H          1 MOL1         0.0832
      10    C4      20.927614   18.719248   23.364894 C.3        1 MOL1        -0.1761
      11    H7      21.834908   18.151262   23.609213 H          1 MOL1         0.0832
      12    H8      20.121300   18.280640   23.966955 H          1 MOL1         0.0832
      13    C5      20.626197   18.559322   21.857844 C.3        1 MOL1         0.1218
      14    H9      21.188350   19.329745   21.310783 H          1 MOL1         0.0789
      15    C6      19.132162   18.692196   21.484349 C.3        1 MOL1        -0.1761
      16    H10     19.076366   18.884061   20.405032 H          1 MOL1         0.0832
      17    H11     18.630392   17.728564   21.644818 H          1 MOL1         0.0832
      18    C7      18.326119   19.787392   22.226565 C.3        1 MOL1        -0.1685
      19    H12     17.426904   20.006703   21.634839 H          1 MOL1         0.0832
      20    H13     17.959113   19.389283   23.182351 H          1 MOL1         0.0832
      21    O1      21.074067   17.277425   21.434323 O.3        1 MOL1        -0.5509
      22    H14     22.037588   17.242626   21.610493 H          1 MOL1         0.3779
@<TRIPOS>BOND
    1     1     2    1
    2     1     3    1
    3     1     4    1
    4     4     5    1
    5     4     6    1
    6     4     7    1
    7     7     8    1
    8     7     9    1
    9     7    10    1
   10    10    11    1
   11    10    12    1
   12    10    13    1
   13    13    14    1
   14    13    15    1
   15    15    16    1
   16    15    17    1
   17     1    18    1
   18    15    18    1
   19    18    19    1
   20    18    20    1
   21    13    21    1
   22    21    22    1
@<TRIPOS>SUBSTRUCTURE
       1 MOL1            1 RESIDUE      1      MOL     
@<SCITEGIC>MOL_PROPERTY
VConf Rank
SciTegic.value.IntegerValue
674

@<SCITEGIC>MOL_PROPERTY
Conf_Id
SciTegic.value.IntegerValue
144

@<SCITEGIC>MOL_PROPERTY
Delta U+W
SciTegic.value.DoubleValue
-3.291

@<SCITEGIC>MOL_PROPERTY
U+W
SciTegic.value.DoubleValue
3.132

@<SCITEGIC>MOL_PROPERTY
Grad RMS
SciTegic.value.DoubleValue
0.000000

@<SCITEGIC>MOL_PROPERTY
U
SciTegic.value.DoubleValue
5.411

@<SCITEGIC>MOL_PROPERTY
W
SciTegic.value.DoubleValue
-2.279

@<SCITEGIC>MOL_PROPERTY
W(PB)
SciTegic.value.DoubleValue
-4.300

@<SCITEGIC>MOL_PROPERTY
W(SA)
SciTegic.value.DoubleValue
2.021

@<SCITEGIC>MOL_PROPERTY
Valence
SciTegic.value.DoubleValue
11.909

@<SCITEGIC>MOL_PROPERTY
Coulomb
SciTegic.value.DoubleValue
-8.733

@<SCITEGIC>MOL_PROPERTY
VdW
SciTegic.value.DoubleValue
2.236

@<SCITEGIC>MOL_PROPERTY
VdW6
SciTegic.value.DoubleValue
-8.936

@<SCITEGIC>MOL_PROPERTY
VdW12
SciTegic.value.DoubleValue
11.172

@<SCITEGIC>MOL_PROPERTY
Bond
SciTegic.value.DoubleValue
0.223

@<SCITEGIC>MOL_PROPERTY
Angle
SciTegic.value.DoubleValue
2.457

@<SCITEGIC>MOL_PROPERTY
Pdih
SciTegic.value.DoubleValue
9.228

@<SCITEGIC>MOL_PROPERTY
Idih
SciTegic.value.DoubleValue
0.000

@<SCITEGIC>MOL_PROPERTY
Tether
SciTegic.value.DoubleValue
0.000

@<TRIPOS>MOLECULE
guest-5_confgen4.mol2 : confsearch ligand conformer 675
          22          22           1
SMALL
USER_CHARGES
 
@<TRIPOS>ATOM
       1    C1      20.397186   21.170517   22.232035 C.3        1 MOL1        -0.1685
       2    H1      20.403208   22.212509   21.884032 H          1 MOL1         0.0832
       3    H2      21.415333   20.963321   22.588586 H          1 MOL1         0.0832
       4    C2      20.039912   20.266497   21.029048 C.3        1 MOL1        -0.1685
       5    H3      18.949414   20.246492   20.897938 H          1 MOL1         0.0832
       6    H4      20.436747   20.722479   20.111661 H          1 MOL1         0.0832
       7    C3      20.579523   18.818172   21.113303 C.3        1 MOL1        -0.1685
       8    H5      21.619119   18.802891   20.758449 H          1 MOL1         0.0832
       9    H6      20.013071   18.200021   20.403346 H          1 MOL1         0.0832
      10    C4      20.536828   18.149574   22.509474 C.3        1 MOL1        -0.1761
      11    H7      20.623714   17.064213   22.364857 H          1 MOL1         0.0832
      12    H8      21.427357   18.446214   23.078557 H          1 MOL1         0.0832
      13    C5      19.272237   18.459206   23.341659 C.3        1 MOL1         0.1218
      14    H9      18.405670   18.556632   22.672301 H          1 MOL1         0.0789
      15    C6      19.420148   19.743537   24.188769 C.3        1 MOL1        -0.1761
      16    H10     18.612735   19.769000   24.932790 H          1 MOL1         0.0832
      17    H11     20.357012   19.700207   24.759290 H          1 MOL1         0.0832
      18    C7      19.374301   21.067009   23.388747 C.3        1 MOL1        -0.1685
      19    H12     18.360418   21.218681   22.993827 H          1 MOL1         0.0832
      20    H13     19.550383   21.896398   24.087244 H          1 MOL1         0.0832
      21    O1      19.045720   17.373768   24.230886 O.3        1 MOL1        -0.5509
      22    H14     19.836038   17.318288   24.806628 H          1 MOL1         0.3779
@<TRIPOS>BOND
    1     1     2    1
    2     1     3    1
    3     1     4    1
    4     4     5    1
    5     4     6    1
    6     4     7    1
    7     7     8    1
    8     7     9    1
    9     7    10    1
   10    10    11    1
   11    10    12    1
   12    10    13    1
   13    13    14    1
   14    13    15    1
   15    15    16    1
   16    15    17    1
   17     1    18    1
   18    15    18    1
   19    18    19    1
   20    18    20    1
   21    13    21    1
   22    21    22    1
@<TRIPOS>SUBSTRUCTURE
       1 MOL1            1 RESIDUE      1      MOL     
@<SCITEGIC>MOL_PROPERTY
VConf Rank
SciTegic.value.IntegerValue
675

@<SCITEGIC>MOL_PROPERTY
Conf_Id
SciTegic.value.IntegerValue
76

@<SCITEGIC>MOL_PROPERTY
Delta U+W
SciTegic.value.DoubleValue
-3.175

@<SCITEGIC>MOL_PROPERTY
U+W
SciTegic.value.DoubleValue
3.248

@<SCITEGIC>MOL_PROPERTY
Grad RMS
SciTegic.value.DoubleValue
0.000000

@<SCITEGIC>MOL_PROPERTY
U
SciTegic.value.DoubleValue
5.336

@<SCITEGIC>MOL_PROPERTY
W
SciTegic.value.DoubleValue
-2.088

@<SCITEGIC>MOL_PROPERTY
W(PB)
SciTegic.value.DoubleValue
-4.098

@<SCITEGIC>MOL_PROPERTY
W(SA)
SciTegic.value.DoubleValue
2.010

@<SCITEGIC>MOL_PROPERTY
Valence
SciTegic.value.DoubleValue
12.390

@<SCITEGIC>MOL_PROPERTY
Coulomb
SciTegic.value.DoubleValue
-9.270

@<SCITEGIC>MOL_PROPERTY
VdW
SciTegic.value.DoubleValue
2.216

@<SCITEGIC>MOL_PROPERTY
VdW6
SciTegic.value.DoubleValue
-8.967

@<SCITEGIC>MOL_PROPERTY
VdW12
SciTegic.value.DoubleValue
11.183

@<SCITEGIC>MOL_PROPERTY
Bond
SciTegic.value.DoubleValue
0.218

@<SCITEGIC>MOL_PROPERTY
Angle
SciTegic.value.DoubleValue
2.426

@<SCITEGIC>MOL_PROPERTY
Pdih
SciTegic.value.DoubleValue
9.745

@<SCITEGIC>MOL_PROPERTY
Idih
SciTegic.value.DoubleValue
0.000

@<SCITEGIC>MOL_PROPERTY
Tether
SciTegic.value.DoubleValue
0.000

@<TRIPOS>MOLECULE
guest-5_confgen4.mol2 : confsearch ligand conformer 676
          22          22           1
SMALL
USER_CHARGES
 
@<TRIPOS>ATOM
       1    C1      20.614254   17.819646   22.241548 C.3        1 MOL1        -0.1685
       2    H1      20.412523   17.279480   21.306505 H          1 MOL1         0.0832
       3    H2      21.271140   17.163708   22.828968 H          1 MOL1         0.0832
       4    C2      19.275424   17.995552   22.997370 C.3        1 MOL1        -0.1685
       5    H3      18.467046   18.171990   22.274963 H          1 MOL1         0.0832
       6    H4      19.031888   17.040772   23.483034 H          1 MOL1         0.0832
       7    C3      19.267622   19.116993   24.062195 C.3        1 MOL1        -0.1685
       8    H5      20.232640   19.170668   24.584396 H          1 MOL1         0.0832
       9    H6      18.522107   18.857115   24.825715 H          1 MOL1         0.0832
      10    C4      18.880680   20.498493   23.475838 C.3        1 MOL1        -0.1761
      11    H7      17.951556   20.398696   22.900268 H          1 MOL1         0.0832
      12    H8      18.641953   21.176708   24.305565 H          1 MOL1         0.0832
      13    C5      19.943781   21.186282   22.589352 C.3        1 MOL1         0.1218
      14    H9      19.451831   22.047720   22.115004 H          1 MOL1         0.0789
      15    C6      20.521534   20.307836   21.451361 C.3        1 MOL1        -0.1761
      16    H10     19.707180   19.947289   20.809714 H          1 MOL1         0.0832
      17    H11     21.136515   20.955295   20.813095 H          1 MOL1         0.0832
      18    C7      21.396044   19.115313   21.918628 C.3        1 MOL1        -0.1685
      19    H12     22.125111   18.881592   21.131063 H          1 MOL1         0.0832
      20    H13     21.994759   19.406474   22.791673 H          1 MOL1         0.0832
      21    O1      20.997327   21.675494   23.413206 O.3        1 MOL1        -0.5509
      22    H14     21.669305   22.054693   22.810763 H          1 MOL1         0.3779
@<TRIPOS>BOND
    1     1     2    1
    2     1     3    1
    3     1     4    1
    4     4     5    1
    5     4     6    1
    6     4     7    1
    7     7     8    1
    8     7     9    1
    9     7    10    1
   10    10    11    1
   11    10    12    1
   12    10    13    1
   13    13    14    1
   14    13    15    1
   15    15    16    1
   16    15    17    1
   17     1    18    1
   18    15    18    1
   19    18    19    1
   20    18    20    1
   21    13    21    1
   22    21    22    1
@<TRIPOS>SUBSTRUCTURE
       1 MOL1            1 RESIDUE      1      MOL     
@<SCITEGIC>MOL_PROPERTY
VConf Rank
SciTegic.value.IntegerValue
676

@<SCITEGIC>MOL_PROPERTY
Conf_Id
SciTegic.value.IntegerValue
95

@<SCITEGIC>MOL_PROPERTY
Delta U+W
SciTegic.value.DoubleValue
-2.289

@<SCITEGIC>MOL_PROPERTY
U+W
SciTegic.value.DoubleValue
4.134

@<SCITEGIC>MOL_PROPERTY
Grad RMS
SciTegic.value.DoubleValue
0.000000

@<SCITEGIC>MOL_PROPERTY
U
SciTegic.value.DoubleValue
6.373

@<SCITEGIC>MOL_PROPERTY
W
SciTegic.value.DoubleValue
-2.240

@<SCITEGIC>MOL_PROPERTY
W(PB)
SciTegic.value.DoubleValue
-4.254

@<SCITEGIC>MOL_PROPERTY
W(SA)
SciTegic.value.DoubleValue
2.015

@<SCITEGIC>MOL_PROPERTY
Valence
SciTegic.value.DoubleValue
12.093

@<SCITEGIC>MOL_PROPERTY
Coulomb
SciTegic.value.DoubleValue
-8.058

@<SCITEGIC>MOL_PROPERTY
VdW
SciTegic.value.DoubleValue
2.339

@<SCITEGIC>MOL_PROPERTY
VdW6
SciTegic.value.DoubleValue
-9.683

@<SCITEGIC>MOL_PROPERTY
VdW12
SciTegic.value.DoubleValue
12.022

@<SCITEGIC>MOL_PROPERTY
Bond
SciTegic.value.DoubleValue
0.268

@<SCITEGIC>MOL_PROPERTY
Angle
SciTegic.value.DoubleValue
3.005

@<SCITEGIC>MOL_PROPERTY
Pdih
SciTegic.value.DoubleValue
8.820

@<SCITEGIC>MOL_PROPERTY
Idih
SciTegic.value.DoubleValue
0.000

@<SCITEGIC>MOL_PROPERTY
Tether
SciTegic.value.DoubleValue
0.000

@<TRIPOS>MOLECULE
guest-5_confgen4.mol2 : confsearch ligand conformer 677
          22          22           1
SMALL
USER_CHARGES
 
@<TRIPOS>ATOM
       1    C1      18.369009   20.501034   22.417393 C.3        1 MOL1        -0.1685
       2    H1      18.028169   21.027295   21.515377 H          1 MOL1         0.0832
       3    H2      17.526786   20.540633   23.121581 H          1 MOL1         0.0832
       4    C2      19.559674   21.287548   23.015757 C.3        1 MOL1        -0.1685
       5    H3      20.166895   21.707050   22.202258 H          1 MOL1         0.0832
       6    H4      19.156115   22.153970   23.557287 H          1 MOL1         0.0832
       7    C3      20.467109   20.477013   23.970279 C.3        1 MOL1        -0.1685
       8    H5      19.874029   19.784653   24.583234 H          1 MOL1         0.0832
       9    H6      20.936675   21.179702   24.671821 H          1 MOL1         0.0832
      10    C4      21.599442   19.726603   23.224614 C.3        1 MOL1        -0.1761
      11    H7      22.116430   20.428423   22.557479 H          1 MOL1         0.0832
      12    H8      22.353954   19.412286   23.957348 H          1 MOL1         0.0832
      13    C5      21.171792   18.488220   22.404091 C.3        1 MOL1         0.1218
      14    H9      22.044860   18.184982   21.808356 H          1 MOL1         0.0789
      15    C6      20.005891   18.726972   21.412121 C.3        1 MOL1        -0.1761
      16    H10     20.267533   19.531659   20.713185 H          1 MOL1         0.0832
      17    H11     19.908414   17.819768   20.801950 H          1 MOL1         0.0832
      18    C7      18.630627   19.016478   22.068075 C.3        1 MOL1        -0.1685
      19    H12     17.837324   18.686033   21.384195 H          1 MOL1         0.0832
      20    H13     18.510404   18.401620   22.969804 H          1 MOL1         0.0832
      21    O1      20.848570   17.422184   23.291778 O.3        1 MOL1        -0.5509
      22    H14     21.606634   17.325692   23.903508 H          1 MOL1         0.3779
@<TRIPOS>BOND
    1     1     2    1
    2     1     3    1
    3     1     4    1
    4     4     5    1
    5     4     6    1
    6     4     7    1
    7     7     8    1
    8     7     9    1
    9     7    10    1
   10    10    11    1
   11    10    12    1
   12    10    13    1
   13    13    14    1
   14    13    15    1
   15    15    16    1
   16    15    17    1
   17     1    18    1
   18    15    18    1
   19    18    19    1
   20    18    20    1
   21    13    21    1
   22    21    22    1
@<TRIPOS>SUBSTRUCTURE
       1 MOL1            1 RESIDUE      1      MOL     
@<SCITEGIC>MOL_PROPERTY
VConf Rank
SciTegic.value.IntegerValue
677

@<SCITEGIC>MOL_PROPERTY
Conf_Id
SciTegic.value.IntegerValue
41

@<SCITEGIC>MOL_PROPERTY
Delta U+W
SciTegic.value.DoubleValue
-2.114

@<SCITEGIC>MOL_PROPERTY
U+W
SciTegic.value.DoubleValue
4.310

@<SCITEGIC>MOL_PROPERTY
Grad RMS
SciTegic.value.DoubleValue
0.000000

@<SCITEGIC>MOL_PROPERTY
U
SciTegic.value.DoubleValue
6.598

@<SCITEGIC>MOL_PROPERTY
W
SciTegic.value.DoubleValue
-2.289

@<SCITEGIC>MOL_PROPERTY
W(PB)
SciTegic.value.DoubleValue
-4.294

@<SCITEGIC>MOL_PROPERTY
W(SA)
SciTegic.value.DoubleValue
2.005

@<SCITEGIC>MOL_PROPERTY
Valence
SciTegic.value.DoubleValue
12.082

@<SCITEGIC>MOL_PROPERTY
Coulomb
SciTegic.value.DoubleValue
-7.801

@<SCITEGIC>MOL_PROPERTY
VdW
SciTegic.value.DoubleValue
2.317

@<SCITEGIC>MOL_PROPERTY
VdW6
SciTegic.value.DoubleValue
-9.658

@<SCITEGIC>MOL_PROPERTY
VdW12
SciTegic.value.DoubleValue
11.975

@<SCITEGIC>MOL_PROPERTY
Bond
SciTegic.value.DoubleValue
0.267

@<SCITEGIC>MOL_PROPERTY
Angle
SciTegic.value.DoubleValue
3.051

@<SCITEGIC>MOL_PROPERTY
Pdih
SciTegic.value.DoubleValue
8.764

@<SCITEGIC>MOL_PROPERTY
Idih
SciTegic.value.DoubleValue
0.000

@<SCITEGIC>MOL_PROPERTY
Tether
SciTegic.value.DoubleValue
0.000

@<TRIPOS>MOLECULE
guest-5_confgen4.mol2 : confsearch ligand conformer 678
          22          22           1
SMALL
USER_CHARGES
 
@<TRIPOS>ATOM
       1    C1      18.944619   18.325901   22.641346 C.3        1 MOL1        -0.1685
       2    H1      18.039542   17.719123   22.502760 H          1 MOL1         0.0832
       3    H2      19.785191   17.619699   22.684858 H          1 MOL1         0.0832
       4    C2      18.803037   19.089860   23.976901 C.3        1 MOL1        -0.1685
       5    H3      17.998792   19.833166   23.891651 H          1 MOL1         0.0832
       6    H4      18.478780   18.383026   24.752661 H          1 MOL1         0.0832
       7    C3      20.095113   19.782177   24.463170 C.3        1 MOL1        -0.1685
       8    H5      20.831803   19.020343   24.750895 H          1 MOL1         0.0832
       9    H6      19.859735   20.327196   25.387116 H          1 MOL1         0.0832
      10    C4      20.728521   20.779667   23.455701 C.3        1 MOL1        -0.1761
      11    H7      19.972439   21.494996   23.107989 H          1 MOL1         0.0832
      12    H8      21.471507   21.375586   24.001078 H          1 MOL1         0.0832
      13    C5      21.453641   20.147772   22.239584 C.3        1 MOL1         0.1218
      14    H9      22.100518   20.930124   21.816792 H          1 MOL1         0.0789
      15    C6      20.540669   19.670377   21.080396 C.3        1 MOL1        -0.1761
      16    H10     20.493181   20.473772   20.333828 H          1 MOL1         0.0832
      17    H11     21.024397   18.828756   20.567412 H          1 MOL1         0.0832
      18    C7      19.085223   19.269165   21.426232 C.3        1 MOL1        -0.1685
      19    H12     18.477054   20.170295   21.582791 H          1 MOL1         0.0832
      20    H13     18.655347   18.773436   20.545246 H          1 MOL1         0.0832
      21    O1      22.292994   19.076146   22.661511 O.3        1 MOL1        -0.5509
      22    H14     22.751785   18.745049   21.862890 H          1 MOL1         0.3779
@<TRIPOS>BOND
    1     1     2    1
    2     1     3    1
    3     1     4    1
    4     4     5    1
    5     4     6    1
    6     4     7    1
    7     7     8    1
    8     7     9    1
    9     7    10    1
   10    10    11    1
   11    10    12    1
   12    10    13    1
   13    13    14    1
   14    13    15    1
   15    15    16    1
   16    15    17    1
   17     1    18    1
   18    15    18    1
   19    18    19    1
   20    18    20    1
   21    13    21    1
   22    21    22    1
@<TRIPOS>SUBSTRUCTURE
       1 MOL1            1 RESIDUE      1      MOL     
@<SCITEGIC>MOL_PROPERTY
VConf Rank
SciTegic.value.IntegerValue
678

@<SCITEGIC>MOL_PROPERTY
Conf_Id
SciTegic.value.IntegerValue
104

@<SCITEGIC>MOL_PROPERTY
Delta U+W
SciTegic.value.DoubleValue
-1.172

@<SCITEGIC>MOL_PROPERTY
U+W
SciTegic.value.DoubleValue
5.252

@<SCITEGIC>MOL_PROPERTY
Grad RMS
SciTegic.value.DoubleValue
0.000000

@<SCITEGIC>MOL_PROPERTY
U
SciTegic.value.DoubleValue
7.482

@<SCITEGIC>MOL_PROPERTY
W
SciTegic.value.DoubleValue
-2.230

@<SCITEGIC>MOL_PROPERTY
W(PB)
SciTegic.value.DoubleValue
-4.220

@<SCITEGIC>MOL_PROPERTY
W(SA)
SciTegic.value.DoubleValue
1.990

@<SCITEGIC>MOL_PROPERTY
Valence
SciTegic.value.DoubleValue
12.309

@<SCITEGIC>MOL_PROPERTY
Coulomb
SciTegic.value.DoubleValue
-7.084

@<SCITEGIC>MOL_PROPERTY
VdW
SciTegic.value.DoubleValue
2.258

@<SCITEGIC>MOL_PROPERTY
VdW6
SciTegic.value.DoubleValue
-9.770

@<SCITEGIC>MOL_PROPERTY
VdW12
SciTegic.value.DoubleValue
12.028

@<SCITEGIC>MOL_PROPERTY
Bond
SciTegic.value.DoubleValue
0.284

@<SCITEGIC>MOL_PROPERTY
Angle
SciTegic.value.DoubleValue
3.491

@<SCITEGIC>MOL_PROPERTY
Pdih
SciTegic.value.DoubleValue
8.535

@<SCITEGIC>MOL_PROPERTY
Idih
SciTegic.value.DoubleValue
0.000

@<SCITEGIC>MOL_PROPERTY
Tether
SciTegic.value.DoubleValue
0.000

@<TRIPOS>MOLECULE
guest-5_confgen4.mol2 : confsearch ligand conformer 679
          22          22           1
SMALL
USER_CHARGES
 
@<TRIPOS>ATOM
       1    C1      20.734961   18.734479   23.904915 C.3        1 MOL1        -0.1685
       2    H1      21.036122   17.903831   23.252374 H          1 MOL1         0.0832
       3    H2      21.044133   18.448907   24.919706 H          1 MOL1         0.0832
       4    C2      19.198534   18.904358   23.909032 C.3        1 MOL1        -0.1685
       5    H3      18.764365   18.149127   24.578639 H          1 MOL1         0.0832
       6    H4      18.940603   19.869427   24.364498 H          1 MOL1         0.0832
       7    C3      18.504124   18.767618   22.530348 C.3        1 MOL1        -0.1685
       8    H5      17.558793   19.326885   22.560090 H          1 MOL1         0.0832
       9    H6      18.216307   17.716844   22.389047 H          1 MOL1         0.0832
      10    C4      19.314372   19.202840   21.279235 C.3        1 MOL1        -0.1761
      11    H7      20.022475   18.406613   21.015479 H          1 MOL1         0.0832
      12    H8      18.620703   19.263569   20.430626 H          1 MOL1         0.0832
      13    C5      20.082943   20.541256   21.368240 C.3        1 MOL1         0.1218
      14    H9      20.254230   20.888997   20.339348 H          1 MOL1         0.0789
      15    C6      21.473085   20.392469   22.026750 C.3        1 MOL1        -0.1761
      16    H10     22.044669   19.635514   21.474145 H          1 MOL1         0.0832
      17    H11     22.019678   21.334488   21.888617 H          1 MOL1         0.0832
      18    C7      21.489697   20.033018   23.533173 C.3        1 MOL1        -0.1685
      19    H12     22.538395   19.922473   23.840945 H          1 MOL1         0.0832
      20    H13     21.096884   20.873634   24.120999 H          1 MOL1         0.0832
      21    O1      19.314512   21.512357   22.061527 O.3        1 MOL1        -0.5509
      22    H14     19.134120   21.098816   22.929126 H          1 MOL1         0.3779
@<TRIPOS>BOND
    1     1     2    1
    2     1     3    1
    3     1     4    1
    4     4     5    1
    5     4     6    1
    6     4     7    1
    7     7     8    1
    8     7     9    1
    9     7    10    1
   10    10    11    1
   11    10    12    1
   12    10    13    1
   13    13    14    1
   14    13    15    1
   15    15    16    1
   16    15    17    1
   17     1    18    1
   18    15    18    1
   19    18    19    1
   20    18    20    1
   21    13    21    1
   22    21    22    1
@<TRIPOS>SUBSTRUCTURE
       1 MOL1            1 RESIDUE      1      MOL     
@<SCITEGIC>MOL_PROPERTY
VConf Rank
SciTegic.value.IntegerValue
679

@<SCITEGIC>MOL_PROPERTY
Conf_Id
SciTegic.value.IntegerValue
99

@<SCITEGIC>MOL_PROPERTY
Delta U+W
SciTegic.value.DoubleValue
-3.852

@<SCITEGIC>MOL_PROPERTY
U+W
SciTegic.value.DoubleValue
2.572

@<SCITEGIC>MOL_PROPERTY
Grad RMS
SciTegic.value.DoubleValue
0.000000

@<SCITEGIC>MOL_PROPERTY
U
SciTegic.value.DoubleValue
3.922

@<SCITEGIC>MOL_PROPERTY
W
SciTegic.value.DoubleValue
-1.350

@<SCITEGIC>MOL_PROPERTY
W(PB)
SciTegic.value.DoubleValue
-3.345

@<SCITEGIC>MOL_PROPERTY
W(SA)
SciTegic.value.DoubleValue
1.995

@<SCITEGIC>MOL_PROPERTY
Valence
SciTegic.value.DoubleValue
12.571

@<SCITEGIC>MOL_PROPERTY
Coulomb
SciTegic.value.DoubleValue
-10.581

@<SCITEGIC>MOL_PROPERTY
VdW
SciTegic.value.DoubleValue
1.932

@<SCITEGIC>MOL_PROPERTY
VdW6
SciTegic.value.DoubleValue
-10.483

@<SCITEGIC>MOL_PROPERTY
VdW12
SciTegic.value.DoubleValue
12.415

@<SCITEGIC>MOL_PROPERTY
Bond
SciTegic.value.DoubleValue
0.268

@<SCITEGIC>MOL_PROPERTY
Angle
SciTegic.value.DoubleValue
3.728

@<SCITEGIC>MOL_PROPERTY
Pdih
SciTegic.value.DoubleValue
8.575

@<SCITEGIC>MOL_PROPERTY
Idih
SciTegic.value.DoubleValue
0.000

@<SCITEGIC>MOL_PROPERTY
Tether
SciTegic.value.DoubleValue
0.000

@<TRIPOS>MOLECULE
guest-5_confgen4.mol2 : confsearch ligand conformer 680
          22          22           1
SMALL
USER_CHARGES
 
@<TRIPOS>ATOM
       1    C1      18.562611   19.993436   23.253385 C.3        1 MOL1        -0.1685
       2    H1      17.508188   20.262536   23.101507 H          1 MOL1         0.0832
       3    H2      18.690178   19.952700   24.343395 H          1 MOL1         0.0832
       4    C2      19.437354   21.132893   22.653123 C.3        1 MOL1        -0.1685
       5    H3      18.761544   21.895261   22.241580 H          1 MOL1         0.0832
       6    H4      19.990255   21.645961   23.451318 H          1 MOL1         0.0832
       7    C3      20.418470   20.714841   21.528226 C.3        1 MOL1        -0.1685
       8    H5      20.823556   21.625243   21.065841 H          1 MOL1         0.0832
       9    H6      19.866217   20.218004   20.720922 H          1 MOL1         0.0832
      10    C4      21.618437   19.829387   21.965122 C.3        1 MOL1        -0.1761
      11    H7      21.988031   19.292620   21.081933 H          1 MOL1         0.0832
      12    H8      22.442516   20.488079   22.270103 H          1 MOL1         0.0832
      13    C5      21.395115   18.803965   23.103892 C.3        1 MOL1         0.1218
      14    H9      22.268200   18.135772   23.107738 H          1 MOL1         0.0789
      15    C6      20.140729   17.904400   22.979615 C.3        1 MOL1        -0.1761
      16    H10     20.335745   17.139963   22.216500 H          1 MOL1         0.0832
      17    H11     20.034961   17.352178   23.922939 H          1 MOL1         0.0832
      18    C7      18.780866   18.581443   22.652221 C.3        1 MOL1        -0.1685
      19    H12     18.636254   18.615326   21.565250 H          1 MOL1         0.0832
      20    H13     17.981119   17.922388   23.016605 H          1 MOL1         0.0832
      21    O1      21.376893   19.476343   24.353219 O.3        1 MOL1        -0.5509
      22    H14     20.588634   20.053163   24.299753 H          1 MOL1         0.3779
@<TRIPOS>BOND
    1     1     2    1
    2     1     3    1
    3     1     4    1
    4     4     5    1
    5     4     6    1
    6     4     7    1
    7     7     8    1
    8     7     9    1
    9     7    10    1
   10    10    11    1
   11    10    12    1
   12    10    13    1
   13    13    14    1
   14    13    15    1
   15    15    16    1
   16    15    17    1
   17     1    18    1
   18    15    18    1
   19    18    19    1
   20    18    20    1
   21    13    21    1
   22    21    22    1
@<TRIPOS>SUBSTRUCTURE
       1 MOL1            1 RESIDUE      1      MOL     
@<SCITEGIC>MOL_PROPERTY
VConf Rank
SciTegic.value.IntegerValue
680

@<SCITEGIC>MOL_PROPERTY
Conf_Id
SciTegic.value.IntegerValue
98

@<SCITEGIC>MOL_PROPERTY
Delta U+W
SciTegic.value.DoubleValue
0.930

@<SCITEGIC>MOL_PROPERTY
U+W
SciTegic.value.DoubleValue
7.353

@<SCITEGIC>MOL_PROPERTY
Grad RMS
SciTegic.value.DoubleValue
0.000000

@<SCITEGIC>MOL_PROPERTY
U
SciTegic.value.DoubleValue
8.455

@<SCITEGIC>MOL_PROPERTY
W
SciTegic.value.DoubleValue
-1.102

@<SCITEGIC>MOL_PROPERTY
W(PB)
SciTegic.value.DoubleValue
-3.101

@<SCITEGIC>MOL_PROPERTY
W(SA)
SciTegic.value.DoubleValue
2.000

@<SCITEGIC>MOL_PROPERTY
Valence
SciTegic.value.DoubleValue
15.601

@<SCITEGIC>MOL_PROPERTY
Coulomb
SciTegic.value.DoubleValue
-10.573

@<SCITEGIC>MOL_PROPERTY
VdW
SciTegic.value.DoubleValue
3.427

@<SCITEGIC>MOL_PROPERTY
VdW6
SciTegic.value.DoubleValue
-11.360

@<SCITEGIC>MOL_PROPERTY
VdW12
SciTegic.value.DoubleValue
14.787

@<SCITEGIC>MOL_PROPERTY
Bond
SciTegic.value.DoubleValue
0.471

@<SCITEGIC>MOL_PROPERTY
Angle
SciTegic.value.DoubleValue
5.445

@<SCITEGIC>MOL_PROPERTY
Pdih
SciTegic.value.DoubleValue
9.685

@<SCITEGIC>MOL_PROPERTY
Idih
SciTegic.value.DoubleValue
0.000

@<SCITEGIC>MOL_PROPERTY
Tether
SciTegic.value.DoubleValue
0.000

@<TRIPOS>MOLECULE
guest-5_confgen4.mol2 : confsearch ligand conformer 681
          22          22           1
SMALL
USER_CHARGES
 
@<TRIPOS>ATOM
       1    C1      21.008801   18.359352   21.887968 C.3        1 MOL1        -0.1685
       2    H1      21.161476   19.089890   21.083117 H          1 MOL1         0.0832
       3    H2      21.632922   17.498065   21.613432 H          1 MOL1         0.0832
       4    C2      19.526534   17.907111   21.910800 C.3        1 MOL1        -0.1685
       5    H3      19.299715   17.467915   20.929712 H          1 MOL1         0.0832
       6    H4      19.401732   17.092686   22.637270 H          1 MOL1         0.0832
       7    C3      18.475223   19.014381   22.199494 C.3        1 MOL1        -0.1685
       8    H5      18.118324   18.933848   23.234459 H          1 MOL1         0.0832
       9    H6      17.590465   18.816678   21.579212 H          1 MOL1         0.0832
      10    C4      18.957247   20.464458   21.929977 C.3        1 MOL1        -0.1761
      11    H7      19.371522   20.523364   20.915811 H          1 MOL1         0.0832
      12    H8      18.078153   21.122727   21.913748 H          1 MOL1         0.0832
      13    C5      19.995417   21.034891   22.940264 C.3        1 MOL1         0.1218
      14    H9      20.796888   21.520187   22.364765 H          1 MOL1         0.0789
      15    C6      20.644363   20.004748   23.898353 C.3        1 MOL1        -0.1761
      16    H10     21.257590   20.540886   24.634265 H          1 MOL1         0.0832
      17    H11     19.864884   19.505468   24.486334 H          1 MOL1         0.0832
      18    C7      21.540994   18.939374   23.219503 C.3        1 MOL1        -0.1685
      19    H12     22.530994   19.376313   23.030298 H          1 MOL1         0.0832
      20    H13     21.704986   18.118104   23.930342 H          1 MOL1         0.0832
      21    O1      19.350171   22.016583   23.743454 O.3        1 MOL1        -0.5509
      22    H14     20.036851   22.398773   24.328758 H          1 MOL1         0.3779
@<TRIPOS>BOND
    1     1     2    1
    2     1     3    1
    3     1     4    1
    4     4     5    1
    5     4     6    1
    6     4     7    1
    7     7     8    1
    8     7     9    1
    9     7    10    1
   10    10    11    1
   11    10    12    1
   12    10    13    1
   13    13    14    1
   14    13    15    1
   15    15    16    1
   16    15    17    1
   17     1    18    1
   18    15    18    1
   19    18    19    1
   20    18    20    1
   21    13    21    1
   22    21    22    1
@<TRIPOS>SUBSTRUCTURE
       1 MOL1            1 RESIDUE      1      MOL     
@<SCITEGIC>MOL_PROPERTY
VConf Rank
SciTegic.value.IntegerValue
681

@<SCITEGIC>MOL_PROPERTY
Conf_Id
SciTegic.value.IntegerValue
141

@<SCITEGIC>MOL_PROPERTY
Delta U+W
SciTegic.value.DoubleValue
0.000

@<SCITEGIC>MOL_PROPERTY
U+W
SciTegic.value.DoubleValue
6.423

@<SCITEGIC>MOL_PROPERTY
Grad RMS
SciTegic.value.DoubleValue
0.000000

@<SCITEGIC>MOL_PROPERTY
U
SciTegic.value.DoubleValue
8.781

@<SCITEGIC>MOL_PROPERTY
W
SciTegic.value.DoubleValue
-2.358

@<SCITEGIC>MOL_PROPERTY
W(PB)
SciTegic.value.DoubleValue
-4.373

@<SCITEGIC>MOL_PROPERTY
W(SA)
SciTegic.value.DoubleValue
2.015

@<SCITEGIC>MOL_PROPERTY
Valence
SciTegic.value.DoubleValue
13.328

@<SCITEGIC>MOL_PROPERTY
Coulomb
SciTegic.value.DoubleValue
-8.387

@<SCITEGIC>MOL_PROPERTY
VdW
SciTegic.value.DoubleValue
3.840

@<SCITEGIC>MOL_PROPERTY
VdW6
SciTegic.value.DoubleValue
-9.744

@<SCITEGIC>MOL_PROPERTY
VdW12
SciTegic.value.DoubleValue
13.584

@<SCITEGIC>MOL_PROPERTY
Bond
SciTegic.value.DoubleValue
0.436

@<SCITEGIC>MOL_PROPERTY
Angle
SciTegic.value.DoubleValue
3.478

@<SCITEGIC>MOL_PROPERTY
Pdih
SciTegic.value.DoubleValue
9.415

@<SCITEGIC>MOL_PROPERTY
Idih
SciTegic.value.DoubleValue
0.000

@<SCITEGIC>MOL_PROPERTY
Tether
SciTegic.value.DoubleValue
0.000

@<TRIPOS>MOLECULE
guest-5_confgen4.mol2 : confsearch ligand conformer 682
          22          22           1
SMALL
USER_CHARGES
 
@<TRIPOS>ATOM
       1    C1      19.954703   17.981129   22.024022 C.3        1 MOL1        -0.1685
       2    H1      20.686640   18.288533   21.264826 H          1 MOL1         0.0832
       3    H2      19.790010   16.906031   21.869278 H          1 MOL1         0.0832
       4    C2      18.600388   18.699242   21.810019 C.3        1 MOL1        -0.1685
       5    H3      18.146249   18.320978   20.883989 H          1 MOL1         0.0832
       6    H4      17.908937   18.420530   22.616923 H          1 MOL1         0.0832
       7    C3      18.679213   20.240301   21.713813 C.3        1 MOL1        -0.1685
       8    H5      17.655780   20.631044   21.631772 H          1 MOL1         0.0832
       9    H6      19.183301   20.522224   20.779268 H          1 MOL1         0.0832
      10    C4      19.379291   20.935184   22.907215 C.3        1 MOL1        -0.1761
      11    H7      19.167452   22.010156   22.836197 H          1 MOL1         0.0832
      12    H8      18.945863   20.600670   23.858654 H          1 MOL1         0.0832
      13    C5      20.910032   20.724334   22.905931 C.3        1 MOL1         0.1218
      14    H9      21.248405   20.665075   21.861500 H          1 MOL1         0.0789
      15    C6      21.383155   19.450112   23.642009 C.3        1 MOL1        -0.1761
      16    H10     22.406949   19.236092   23.309007 H          1 MOL1         0.0832
      17    H11     21.454092   19.657315   24.718180 H          1 MOL1         0.0832
      18    C7      20.521231   18.177258   23.449723 C.3        1 MOL1        -0.1685
      19    H12     21.138271   17.306817   23.711295 H          1 MOL1         0.0832
      20    H13     19.695097   18.180109   24.173742 H          1 MOL1         0.0832
      21    O1      21.527765   21.846046   23.525112 O.3        1 MOL1        -0.5509
      22    H14     21.276233   22.633329   22.998295 H          1 MOL1         0.3779
@<TRIPOS>BOND
    1     1     2    1
    2     1     3    1
    3     1     4    1
    4     4     5    1
    5     4     6    1
    6     4     7    1
    7     7     8    1
    8     7     9    1
    9     7    10    1
   10    10    11    1
   11    10    12    1
   12    10    13    1
   13    13    14    1
   14    13    15    1
   15    15    16    1
   16    15    17    1
   17     1    18    1
   18    15    18    1
   19    18    19    1
   20    18    20    1
   21    13    21    1
   22    21    22    1
@<TRIPOS>SUBSTRUCTURE
       1 MOL1            1 RESIDUE      1      MOL     
@<SCITEGIC>MOL_PROPERTY
VConf Rank
SciTegic.value.IntegerValue
682

@<SCITEGIC>MOL_PROPERTY
Conf_Id
SciTegic.value.IntegerValue
144

@<SCITEGIC>MOL_PROPERTY
Delta U+W
SciTegic.value.DoubleValue
-3.291

@<SCITEGIC>MOL_PROPERTY
U+W
SciTegic.value.DoubleValue
3.132

@<SCITEGIC>MOL_PROPERTY
Grad RMS
SciTegic.value.DoubleValue
0.000000

@<SCITEGIC>MOL_PROPERTY
U
SciTegic.value.DoubleValue
5.411

@<SCITEGIC>MOL_PROPERTY
W
SciTegic.value.DoubleValue
-2.279

@<SCITEGIC>MOL_PROPERTY
W(PB)
SciTegic.value.DoubleValue
-4.300

@<SCITEGIC>MOL_PROPERTY
W(SA)
SciTegic.value.DoubleValue
2.021

@<SCITEGIC>MOL_PROPERTY
Valence
SciTegic.value.DoubleValue
11.909

@<SCITEGIC>MOL_PROPERTY
Coulomb
SciTegic.value.DoubleValue
-8.733

@<SCITEGIC>MOL_PROPERTY
VdW
SciTegic.value.DoubleValue
2.236

@<SCITEGIC>MOL_PROPERTY
VdW6
SciTegic.value.DoubleValue
-8.936

@<SCITEGIC>MOL_PROPERTY
VdW12
SciTegic.value.DoubleValue
11.172

@<SCITEGIC>MOL_PROPERTY
Bond
SciTegic.value.DoubleValue
0.223

@<SCITEGIC>MOL_PROPERTY
Angle
SciTegic.value.DoubleValue
2.457

@<SCITEGIC>MOL_PROPERTY
Pdih
SciTegic.value.DoubleValue
9.228

@<SCITEGIC>MOL_PROPERTY
Idih
SciTegic.value.DoubleValue
0.000

@<SCITEGIC>MOL_PROPERTY
Tether
SciTegic.value.DoubleValue
0.000

@<TRIPOS>MOLECULE
guest-5_confgen4.mol2 : confsearch ligand conformer 683
          22          22           1
SMALL
USER_CHARGES
 
@<TRIPOS>ATOM
       1    C1      18.346378   19.630247   23.330141 C.3        1 MOL1        -0.1685
       2    H1      17.266346   19.760216   23.483530 H          1 MOL1         0.0832
       3    H2      18.753631   19.304716   24.297021 H          1 MOL1         0.0832
       4    C2      18.938479   20.997393   22.914927 C.3        1 MOL1        -0.1685
       5    H3      18.786900   21.149414   21.837575 H          1 MOL1         0.0832
       6    H4      18.366724   21.796356   23.406611 H          1 MOL1         0.0832
       7    C3      20.433434   21.198032   23.262459 C.3        1 MOL1        -0.1685
       8    H5      20.516248   21.529908   24.306450 H          1 MOL1         0.0832
       9    H6      20.817763   22.028372   22.654311 H          1 MOL1         0.0832
      10    C4      21.353605   19.966879   23.073550 C.3        1 MOL1        -0.1761
      11    H7      22.390529   20.326373   23.028579 H          1 MOL1         0.0832
      12    H8      21.296698   19.333664   23.968365 H          1 MOL1         0.0832
      13    C5      21.049567   19.112139   21.822721 C.3        1 MOL1         0.1218
      14    H9      20.707112   19.763434   21.006015 H          1 MOL1         0.0789
      15    C6      19.989800   18.020327   22.094420 C.3        1 MOL1        -0.1761
      16    H10     20.005066   17.301156   21.264546 H          1 MOL1         0.0832
      17    H11     20.269493   17.453610   22.992022 H          1 MOL1         0.0832
      18    C7      18.539980   18.536924   22.252108 C.3        1 MOL1        -0.1685
      19    H12     18.179615   18.911175   21.284121 H          1 MOL1         0.0832
      20    H13     17.896325   17.682111   22.500684 H          1 MOL1         0.0832
      21    O1      22.249673   18.464959   21.421330 O.3        1 MOL1        -0.5509
      22    H14     22.522709   17.898219   22.171941 H          1 MOL1         0.3779
@<TRIPOS>BOND
    1     1     2    1
    2     1     3    1
    3     1     4    1
    4     4     5    1
    5     4     6    1
    6     4     7    1
    7     7     8    1
    8     7     9    1
    9     7    10    1
   10    10    11    1
   11    10    12    1
   12    10    13    1
   13    13    14    1
   14    13    15    1
   15    15    16    1
   16    15    17    1
   17     1    18    1
   18    15    18    1
   19    18    19    1
   20    18    20    1
   21    13    21    1
   22    21    22    1
@<TRIPOS>SUBSTRUCTURE
       1 MOL1            1 RESIDUE      1      MOL     
@<SCITEGIC>MOL_PROPERTY
VConf Rank
SciTegic.value.IntegerValue
683

@<SCITEGIC>MOL_PROPERTY
Conf_Id
SciTegic.value.IntegerValue
76

@<SCITEGIC>MOL_PROPERTY
Delta U+W
SciTegic.value.DoubleValue
-3.175

@<SCITEGIC>MOL_PROPERTY
U+W
SciTegic.value.DoubleValue
3.248

@<SCITEGIC>MOL_PROPERTY
Grad RMS
SciTegic.value.DoubleValue
0.000000

@<SCITEGIC>MOL_PROPERTY
U
SciTegic.value.DoubleValue
5.336

@<SCITEGIC>MOL_PROPERTY
W
SciTegic.value.DoubleValue
-2.088

@<SCITEGIC>MOL_PROPERTY
W(PB)
SciTegic.value.DoubleValue
-4.098

@<SCITEGIC>MOL_PROPERTY
W(SA)
SciTegic.value.DoubleValue
2.010

@<SCITEGIC>MOL_PROPERTY
Valence
SciTegic.value.DoubleValue
12.390

@<SCITEGIC>MOL_PROPERTY
Coulomb
SciTegic.value.DoubleValue
-9.270

@<SCITEGIC>MOL_PROPERTY
VdW
SciTegic.value.DoubleValue
2.216

@<SCITEGIC>MOL_PROPERTY
VdW6
SciTegic.value.DoubleValue
-8.967

@<SCITEGIC>MOL_PROPERTY
VdW12
SciTegic.value.DoubleValue
11.183

@<SCITEGIC>MOL_PROPERTY
Bond
SciTegic.value.DoubleValue
0.218

@<SCITEGIC>MOL_PROPERTY
Angle
SciTegic.value.DoubleValue
2.426

@<SCITEGIC>MOL_PROPERTY
Pdih
SciTegic.value.DoubleValue
9.745

@<SCITEGIC>MOL_PROPERTY
Idih
SciTegic.value.DoubleValue
0.000

@<SCITEGIC>MOL_PROPERTY
Tether
SciTegic.value.DoubleValue
0.000

@<TRIPOS>MOLECULE
guest-5_confgen4.mol2 : confsearch ligand conformer 684
          22          22           1
SMALL
USER_CHARGES
 
@<TRIPOS>ATOM
       1    C1      21.711194   18.654906   22.619324 C.3        1 MOL1        -0.1685
       2    H1      22.377765   18.553199   21.752075 H          1 MOL1         0.0832
       3    H2      22.243091   18.189460   23.460312 H          1 MOL1         0.0832
       4    C2      20.420671   17.849721   22.334894 C.3        1 MOL1        -0.1685
       5    H3      20.163433   17.933500   21.270334 H          1 MOL1         0.0832
       6    H4      20.640607   16.786312   22.500944 H          1 MOL1         0.0832
       7    C3      19.197598   18.249494   23.192692 C.3        1 MOL1        -0.1685
       8    H5      19.501511   18.503072   24.217470 H          1 MOL1         0.0832
       9    H6      18.539915   17.373992   23.277796 H          1 MOL1         0.0832
      10    C4      18.372536   19.399909   22.561900 C.3        1 MOL1        -0.1761
      11    H7      18.145220   19.150311   21.517610 H          1 MOL1         0.0832
      12    H8      17.400900   19.453658   23.070279 H          1 MOL1         0.0832
      13    C5      19.013291   20.805708   22.609414 C.3        1 MOL1         0.1218
      14    H9      18.398156   21.456214   21.971019 H          1 MOL1         0.0789
      15    C6      20.465985   20.886320   22.076808 C.3        1 MOL1        -0.1761
      16    H10     20.504754   20.515933   21.044243 H          1 MOL1         0.0832
      17    H11     20.739602   21.947820   22.020784 H          1 MOL1         0.0832
      18    C7      21.526526   20.156920   22.941934 C.3        1 MOL1        -0.1685
      19    H12     22.496827   20.652933   22.804426 H          1 MOL1         0.0832
      20    H13     21.288809   20.273937   24.007410 H          1 MOL1         0.0832
      21    O1      18.951791   21.305263   23.941587 O.3        1 MOL1        -0.5509
      22    H14     19.412040   22.169227   23.936972 H          1 MOL1         0.3779
@<TRIPOS>BOND
    1     1     2    1
    2     1     3    1
    3     1     4    1
    4     4     5    1
    5     4     6    1
    6     4     7    1
    7     7     8    1
    8     7     9    1
    9     7    10    1
   10    10    11    1
   11    10    12    1
   12    10    13    1
   13    13    14    1
   14    13    15    1
   15    15    16    1
   16    15    17    1
   17     1    18    1
   18    15    18    1
   19    18    19    1
   20    18    20    1
   21    13    21    1
   22    21    22    1
@<TRIPOS>SUBSTRUCTURE
       1 MOL1            1 RESIDUE      1      MOL     
@<SCITEGIC>MOL_PROPERTY
VConf Rank
SciTegic.value.IntegerValue
684

@<SCITEGIC>MOL_PROPERTY
Conf_Id
SciTegic.value.IntegerValue
95

@<SCITEGIC>MOL_PROPERTY
Delta U+W
SciTegic.value.DoubleValue
-2.289

@<SCITEGIC>MOL_PROPERTY
U+W
SciTegic.value.DoubleValue
4.134

@<SCITEGIC>MOL_PROPERTY
Grad RMS
SciTegic.value.DoubleValue
0.000000

@<SCITEGIC>MOL_PROPERTY
U
SciTegic.value.DoubleValue
6.373

@<SCITEGIC>MOL_PROPERTY
W
SciTegic.value.DoubleValue
-2.240

@<SCITEGIC>MOL_PROPERTY
W(PB)
SciTegic.value.DoubleValue
-4.254

@<SCITEGIC>MOL_PROPERTY
W(SA)
SciTegic.value.DoubleValue
2.015

@<SCITEGIC>MOL_PROPERTY
Valence
SciTegic.value.DoubleValue
12.093

@<SCITEGIC>MOL_PROPERTY
Coulomb
SciTegic.value.DoubleValue
-8.058

@<SCITEGIC>MOL_PROPERTY
VdW
SciTegic.value.DoubleValue
2.339

@<SCITEGIC>MOL_PROPERTY
VdW6
SciTegic.value.DoubleValue
-9.683

@<SCITEGIC>MOL_PROPERTY
VdW12
SciTegic.value.DoubleValue
12.022

@<SCITEGIC>MOL_PROPERTY
Bond
SciTegic.value.DoubleValue
0.268

@<SCITEGIC>MOL_PROPERTY
Angle
SciTegic.value.DoubleValue
3.005

@<SCITEGIC>MOL_PROPERTY
Pdih
SciTegic.value.DoubleValue
8.820

@<SCITEGIC>MOL_PROPERTY
Idih
SciTegic.value.DoubleValue
0.000

@<SCITEGIC>MOL_PROPERTY
Tether
SciTegic.value.DoubleValue
0.000

@<TRIPOS>MOLECULE
guest-5_confgen4.mol2 : confsearch ligand conformer 685
          22          22           1
SMALL
USER_CHARGES
 
@<TRIPOS>ATOM
       1    C1      21.525050   20.802516   22.416659 C.3        1 MOL1        -0.1685
       2    H1      22.157937   21.290888   23.170118 H          1 MOL1         0.0832
       3    H2      21.941360   21.094968   21.443033 H          1 MOL1         0.0832
       4    C2      20.093347   21.375980   22.541940 C.3        1 MOL1        -0.1685
       5    H3      19.867339   21.567966   23.599551 H          1 MOL1         0.0832
       6    H4      20.078563   22.360811   22.055434 H          1 MOL1         0.0832
       7    C3      18.979019   20.496296   21.928794 C.3        1 MOL1        -0.1685
       8    H5      19.322652   20.015059   21.002972 H          1 MOL1         0.0832
       9    H6      18.147070   21.152939   21.640515 H          1 MOL1         0.0832
      10    C4      18.428407   19.447230   22.927592 C.3        1 MOL1        -0.1761
      11    H7      18.174908   19.948141   23.870843 H          1 MOL1         0.0832
      12    H8      17.477786   19.058645   22.539903 H          1 MOL1         0.0832
      13    C5      19.354368   18.248757   23.237420 C.3        1 MOL1         0.1218
      14    H9      18.899678   17.705138   24.078155 H          1 MOL1         0.0789
      15    C6      20.795246   18.624202   23.665492 C.3        1 MOL1        -0.1761
      16    H10     20.766032   19.276082   24.547925 H          1 MOL1         0.0832
      17    H11     21.287817   17.699281   23.992179 H          1 MOL1         0.0832
      18    C7      21.666479   19.267885   22.555508 C.3        1 MOL1        -0.1685
      19    H12     22.721764   19.043660   22.761211 H          1 MOL1         0.0832
      20    H13     21.452115   18.791694   21.589635 H          1 MOL1         0.0832
      21    O1      19.389815   17.376124   22.112188 O.3        1 MOL1        -0.5509
      22    H14     18.459580   17.185552   21.874425 H          1 MOL1         0.3779
@<TRIPOS>BOND
    1     1     2    1
    2     1     3    1
    3     1     4    1
    4     4     5    1
    5     4     6    1
    6     4     7    1
    7     7     8    1
    8     7     9    1
    9     7    10    1
   10    10    11    1
   11    10    12    1
   12    10    13    1
   13    13    14    1
   14    13    15    1
   15    15    16    1
   16    15    17    1
   17     1    18    1
   18    15    18    1
   19    18    19    1
   20    18    20    1
   21    13    21    1
   22    21    22    1
@<TRIPOS>SUBSTRUCTURE
       1 MOL1            1 RESIDUE      1      MOL     
@<SCITEGIC>MOL_PROPERTY
VConf Rank
SciTegic.value.IntegerValue
685

@<SCITEGIC>MOL_PROPERTY
Conf_Id
SciTegic.value.IntegerValue
41

@<SCITEGIC>MOL_PROPERTY
Delta U+W
SciTegic.value.DoubleValue
-2.114

@<SCITEGIC>MOL_PROPERTY
U+W
SciTegic.value.DoubleValue
4.310

@<SCITEGIC>MOL_PROPERTY
Grad RMS
SciTegic.value.DoubleValue
0.000000

@<SCITEGIC>MOL_PROPERTY
U
SciTegic.value.DoubleValue
6.598

@<SCITEGIC>MOL_PROPERTY
W
SciTegic.value.DoubleValue
-2.289

@<SCITEGIC>MOL_PROPERTY
W(PB)
SciTegic.value.DoubleValue
-4.294

@<SCITEGIC>MOL_PROPERTY
W(SA)
SciTegic.value.DoubleValue
2.005

@<SCITEGIC>MOL_PROPERTY
Valence
SciTegic.value.DoubleValue
12.082

@<SCITEGIC>MOL_PROPERTY
Coulomb
SciTegic.value.DoubleValue
-7.801

@<SCITEGIC>MOL_PROPERTY
VdW
SciTegic.value.DoubleValue
2.317

@<SCITEGIC>MOL_PROPERTY
VdW6
SciTegic.value.DoubleValue
-9.658

@<SCITEGIC>MOL_PROPERTY
VdW12
SciTegic.value.DoubleValue
11.975

@<SCITEGIC>MOL_PROPERTY
Bond
SciTegic.value.DoubleValue
0.267

@<SCITEGIC>MOL_PROPERTY
Angle
SciTegic.value.DoubleValue
3.051

@<SCITEGIC>MOL_PROPERTY
Pdih
SciTegic.value.DoubleValue
8.764

@<SCITEGIC>MOL_PROPERTY
Idih
SciTegic.value.DoubleValue
0.000

@<SCITEGIC>MOL_PROPERTY
Tether
SciTegic.value.DoubleValue
0.000

@<TRIPOS>MOLECULE
guest-5_confgen4.mol2 : confsearch ligand conformer 686
          22          22           1
SMALL
USER_CHARGES
 
@<TRIPOS>ATOM
       1    C1      18.925294   20.553390   22.083414 C.3        1 MOL1        -0.1685
       2    H1      18.354195   21.292903   21.505904 H          1 MOL1         0.0832
       3    H2      18.184540   19.909005   22.576595 H          1 MOL1         0.0832
       4    C2      19.767880   21.317118   23.129433 C.3        1 MOL1        -0.1685
       5    H3      20.541648   21.906319   22.618839 H          1 MOL1         0.0832
       6    H4      19.120890   22.045327   23.637051 H          1 MOL1         0.0832
       7    C3      20.425713   20.423478   24.203622 C.3        1 MOL1        -0.1685
       8    H5      19.647815   19.998465   24.851795 H          1 MOL1         0.0832
       9    H6      21.031429   21.067653   24.854984 H          1 MOL1         0.0832
      10    C4      21.335476   19.291664   23.653610 C.3        1 MOL1        -0.1761
      11    H7      22.064558   19.705120   22.945266 H          1 MOL1         0.0832
      12    H8      21.925792   18.902657   24.493125 H          1 MOL1         0.0832
      13    C5      20.604295   18.084523   23.011568 C.3        1 MOL1         0.1218
      14    H9      21.331291   17.260409   22.971682 H          1 MOL1         0.0789
      15    C6      20.105994   18.290455   21.557460 C.3        1 MOL1        -0.1761
      16    H10     20.868075   17.887196   20.877992 H          1 MOL1         0.0832
      17    H11     19.215780   17.669211   21.393002 H          1 MOL1         0.0832
      18    C7      19.792206   19.736524   21.099945 C.3        1 MOL1        -0.1685
      19    H12     20.727747   20.273996   20.894277 H          1 MOL1         0.0832
      20    H13     19.268747   19.677469   20.136004 H          1 MOL1         0.0832
      21    O1      19.520117   17.663203   23.834955 O.3        1 MOL1        -0.5509
      22    H14     19.124404   16.879546   23.402285 H          1 MOL1         0.3779
@<TRIPOS>BOND
    1     1     2    1
    2     1     3    1
    3     1     4    1
    4     4     5    1
    5     4     6    1
    6     4     7    1
    7     7     8    1
    8     7     9    1
    9     7    10    1
   10    10    11    1
   11    10    12    1
   12    10    13    1
   13    13    14    1
   14    13    15    1
   15    15    16    1
   16    15    17    1
   17     1    18    1
   18    15    18    1
   19    18    19    1
   20    18    20    1
   21    13    21    1
   22    21    22    1
@<TRIPOS>SUBSTRUCTURE
       1 MOL1            1 RESIDUE      1      MOL     
@<SCITEGIC>MOL_PROPERTY
VConf Rank
SciTegic.value.IntegerValue
686

@<SCITEGIC>MOL_PROPERTY
Conf_Id
SciTegic.value.IntegerValue
104

@<SCITEGIC>MOL_PROPERTY
Delta U+W
SciTegic.value.DoubleValue
-1.172

@<SCITEGIC>MOL_PROPERTY
U+W
SciTegic.value.DoubleValue
5.252

@<SCITEGIC>MOL_PROPERTY
Grad RMS
SciTegic.value.DoubleValue
0.000000

@<SCITEGIC>MOL_PROPERTY
U
SciTegic.value.DoubleValue
7.482

@<SCITEGIC>MOL_PROPERTY
W
SciTegic.value.DoubleValue
-2.230

@<SCITEGIC>MOL_PROPERTY
W(PB)
SciTegic.value.DoubleValue
-4.220

@<SCITEGIC>MOL_PROPERTY
W(SA)
SciTegic.value.DoubleValue
1.990

@<SCITEGIC>MOL_PROPERTY
Valence
SciTegic.value.DoubleValue
12.309

@<SCITEGIC>MOL_PROPERTY
Coulomb
SciTegic.value.DoubleValue
-7.084

@<SCITEGIC>MOL_PROPERTY
VdW
SciTegic.value.DoubleValue
2.258

@<SCITEGIC>MOL_PROPERTY
VdW6
SciTegic.value.DoubleValue
-9.770

@<SCITEGIC>MOL_PROPERTY
VdW12
SciTegic.value.DoubleValue
12.028

@<SCITEGIC>MOL_PROPERTY
Bond
SciTegic.value.DoubleValue
0.284

@<SCITEGIC>MOL_PROPERTY
Angle
SciTegic.value.DoubleValue
3.491

@<SCITEGIC>MOL_PROPERTY
Pdih
SciTegic.value.DoubleValue
8.535

@<SCITEGIC>MOL_PROPERTY
Idih
SciTegic.value.DoubleValue
0.000

@<SCITEGIC>MOL_PROPERTY
Tether
SciTegic.value.DoubleValue
0.000

@<TRIPOS>MOLECULE
guest-5_confgen4.mol2 : confsearch ligand conformer 687
          22          22           1
SMALL
USER_CHARGES
 
@<TRIPOS>ATOM
       1    C1      21.480429   19.539034   23.503647 C.3        1 MOL1        -0.1685
       2    H1      22.092185   19.621228   22.595086 H          1 MOL1         0.0832
       3    H2      22.189377   19.454740   24.338647 H          1 MOL1         0.0832
       4    C2      20.624508   18.252081   23.478456 C.3        1 MOL1        -0.1685
       5    H3      21.260389   17.402797   23.764149 H          1 MOL1         0.0832
       6    H4      19.858364   18.309496   24.262716 H          1 MOL1         0.0832
       7    C3      19.964720   17.910953   22.118315 C.3        1 MOL1        -0.1685
       8    H5      19.072953   17.297824   22.308417 H          1 MOL1         0.0832
       9    H6      20.648539   17.262765   21.553362 H          1 MOL1         0.0832
      10    C4      19.578717   19.099579   21.196700 C.3        1 MOL1        -0.1761
      11    H7      20.478536   19.462495   20.683306 H          1 MOL1         0.0832
      12    H8      18.929101   18.713774   20.400362 H          1 MOL1         0.0832
      13    C5      18.865877   20.301323   21.858251 C.3        1 MOL1         0.1218
      14    H9      18.325607   20.838046   21.065208 H          1 MOL1         0.0789
      15    C6      19.851421   21.310663   22.489287 C.3        1 MOL1        -0.1761
      16    H10     20.561337   21.637674   21.718479 H          1 MOL1         0.0832
      17    H11     19.287107   22.209095   22.771446 H          1 MOL1         0.0832
      18    C7      20.644225   20.821629   23.726662 C.3        1 MOL1        -0.1685
      19    H12     21.324901   21.628578   24.030349 H          1 MOL1         0.0832
      20    H13     19.960440   20.678006   24.574181 H          1 MOL1         0.0832
      21    O1      17.933624   19.854515   22.830587 O.3        1 MOL1        -0.5509
      22    H14     18.471352   19.321228   23.449247 H          1 MOL1         0.3779
@<TRIPOS>BOND
    1     1     2    1
    2     1     3    1
    3     1     4    1
    4     4     5    1
    5     4     6    1
    6     4     7    1
    7     7     8    1
    8     7     9    1
    9     7    10    1
   10    10    11    1
   11    10    12    1
   12    10    13    1
   13    13    14    1
   14    13    15    1
   15    15    16    1
   16    15    17    1
   17     1    18    1
   18    15    18    1
   19    18    19    1
   20    18    20    1
   21    13    21    1
   22    21    22    1
@<TRIPOS>SUBSTRUCTURE
       1 MOL1            1 RESIDUE      1      MOL     
@<SCITEGIC>MOL_PROPERTY
VConf Rank
SciTegic.value.IntegerValue
687

@<SCITEGIC>MOL_PROPERTY
Conf_Id
SciTegic.value.IntegerValue
99

@<SCITEGIC>MOL_PROPERTY
Delta U+W
SciTegic.value.DoubleValue
-3.852

@<SCITEGIC>MOL_PROPERTY
U+W
SciTegic.value.DoubleValue
2.572

@<SCITEGIC>MOL_PROPERTY
Grad RMS
SciTegic.value.DoubleValue
0.000000

@<SCITEGIC>MOL_PROPERTY
U
SciTegic.value.DoubleValue
3.922

@<SCITEGIC>MOL_PROPERTY
W
SciTegic.value.DoubleValue
-1.350

@<SCITEGIC>MOL_PROPERTY
W(PB)
SciTegic.value.DoubleValue
-3.345

@<SCITEGIC>MOL_PROPERTY
W(SA)
SciTegic.value.DoubleValue
1.995

@<SCITEGIC>MOL_PROPERTY
Valence
SciTegic.value.DoubleValue
12.571

@<SCITEGIC>MOL_PROPERTY
Coulomb
SciTegic.value.DoubleValue
-10.581

@<SCITEGIC>MOL_PROPERTY
VdW
SciTegic.value.DoubleValue
1.932

@<SCITEGIC>MOL_PROPERTY
VdW6
SciTegic.value.DoubleValue
-10.483

@<SCITEGIC>MOL_PROPERTY
VdW12
SciTegic.value.DoubleValue
12.415

@<SCITEGIC>MOL_PROPERTY
Bond
SciTegic.value.DoubleValue
0.268

@<SCITEGIC>MOL_PROPERTY
Angle
SciTegic.value.DoubleValue
3.728

@<SCITEGIC>MOL_PROPERTY
Pdih
SciTegic.value.DoubleValue
8.575

@<SCITEGIC>MOL_PROPERTY
Idih
SciTegic.value.DoubleValue
0.000

@<SCITEGIC>MOL_PROPERTY
Tether
SciTegic.value.DoubleValue
0.000

@<TRIPOS>MOLECULE
guest-5_confgen4.mol2 : confsearch ligand conformer 688
          22          22           1
SMALL
USER_CHARGES
 
@<TRIPOS>ATOM
       1    C1      18.627345   18.850762   22.310567 C.3        1 MOL1        -0.1685
       2    H1      17.994110   17.958277   22.211700 H          1 MOL1         0.0832
       3    H2      17.973310   19.692545   22.046568 H          1 MOL1         0.0832
       4    C2      19.787822   18.729309   21.279842 C.3        1 MOL1        -0.1685
       5    H3      19.656784   17.784334   20.734734 H          1 MOL1         0.0832
       6    H4      19.697993   19.512140   20.514884 H          1 MOL1         0.0832
       7    C3      21.222053   18.740329   21.867728 C.3        1 MOL1        -0.1685
       8    H5      21.924521   18.455385   21.072700 H          1 MOL1         0.0832
       9    H6      21.320228   17.947360   22.619480 H          1 MOL1         0.0832
      10    C4      21.703125   20.091857   22.465030 C.3        1 MOL1        -0.1761
      11    H7      22.517171   19.884231   23.171403 H          1 MOL1         0.0832
      12    H8      22.160799   20.683127   21.660710 H          1 MOL1         0.0832
      13    C5      20.659936   20.992983   23.170642 C.3        1 MOL1         0.1218
      14    H9      21.221354   21.768380   23.711329 H          1 MOL1         0.0789
      15    C6      19.742397   20.297373   24.206206 C.3        1 MOL1        -0.1761
      16    H10     20.324624   20.114245   25.118465 H          1 MOL1         0.0832
      17    H11     18.966340   21.017843   24.497163 H          1 MOL1         0.0832
      18    C7      19.049335   18.967930   23.797494 C.3        1 MOL1        -0.1685
      19    H12     19.688236   18.118480   24.069169 H          1 MOL1         0.0832
      20    H13     18.153415   18.850270   24.422160 H          1 MOL1         0.0832
      21    O1      19.865266   21.652915   22.197898 O.3        1 MOL1        -0.5509
      22    H14     19.389711   20.925827   21.748316 H          1 MOL1         0.3779
@<TRIPOS>BOND
    1     1     2    1
    2     1     3    1
    3     1     4    1
    4     4     5    1
    5     4     6    1
    6     4     7    1
    7     7     8    1
    8     7     9    1
    9     7    10    1
   10    10    11    1
   11    10    12    1
   12    10    13    1
   13    13    14    1
   14    13    15    1
   15    15    16    1
   16    15    17    1
   17     1    18    1
   18    15    18    1
   19    18    19    1
   20    18    20    1
   21    13    21    1
   22    21    22    1
@<TRIPOS>SUBSTRUCTURE
       1 MOL1            1 RESIDUE      1      MOL     
@<SCITEGIC>MOL_PROPERTY
VConf Rank
SciTegic.value.IntegerValue
688

@<SCITEGIC>MOL_PROPERTY
Conf_Id
SciTegic.value.IntegerValue
98

@<SCITEGIC>MOL_PROPERTY
Delta U+W
SciTegic.value.DoubleValue
0.930

@<SCITEGIC>MOL_PROPERTY
U+W
SciTegic.value.DoubleValue
7.353

@<SCITEGIC>MOL_PROPERTY
Grad RMS
SciTegic.value.DoubleValue
0.000000

@<SCITEGIC>MOL_PROPERTY
U
SciTegic.value.DoubleValue
8.455

@<SCITEGIC>MOL_PROPERTY
W
SciTegic.value.DoubleValue
-1.102

@<SCITEGIC>MOL_PROPERTY
W(PB)
SciTegic.value.DoubleValue
-3.101

@<SCITEGIC>MOL_PROPERTY
W(SA)
SciTegic.value.DoubleValue
2.000

@<SCITEGIC>MOL_PROPERTY
Valence
SciTegic.value.DoubleValue
15.601

@<SCITEGIC>MOL_PROPERTY
Coulomb
SciTegic.value.DoubleValue
-10.573

@<SCITEGIC>MOL_PROPERTY
VdW
SciTegic.value.DoubleValue
3.427

@<SCITEGIC>MOL_PROPERTY
VdW6
SciTegic.value.DoubleValue
-11.360

@<SCITEGIC>MOL_PROPERTY
VdW12
SciTegic.value.DoubleValue
14.787

@<SCITEGIC>MOL_PROPERTY
Bond
SciTegic.value.DoubleValue
0.471

@<SCITEGIC>MOL_PROPERTY
Angle
SciTegic.value.DoubleValue
5.445

@<SCITEGIC>MOL_PROPERTY
Pdih
SciTegic.value.DoubleValue
9.685

@<SCITEGIC>MOL_PROPERTY
Idih
SciTegic.value.DoubleValue
0.000

@<SCITEGIC>MOL_PROPERTY
Tether
SciTegic.value.DoubleValue
0.000

@<TRIPOS>MOLECULE
guest-5_confgen4.mol2 : confsearch ligand conformer 689
          22          22           1
SMALL
USER_CHARGES
 
@<TRIPOS>ATOM
       1    C1      21.245403   19.595295   23.854353 C.3        1 MOL1        -0.1685
       2    H1      21.964427   19.729630   23.035976 H          1 MOL1         0.0832
       3    H2      21.844053   19.659023   24.773194 H          1 MOL1         0.0832
       4    C2      20.616571   18.181077   23.772404 C.3        1 MOL1        -0.1685
       5    H3      21.434629   17.451023   23.840807 H          1 MOL1         0.0832
       6    H4      19.987581   18.006589   24.655891 H          1 MOL1         0.0832
       7    C3      19.795191   17.868082   22.490993 C.3        1 MOL1        -0.1685
       8    H5      18.720902   17.916459   22.711399 H          1 MOL1         0.0832
       9    H6      19.979843   16.821549   22.212952 H          1 MOL1         0.0832
      10    C4      20.113727   18.770498   21.269564 C.3        1 MOL1        -0.1761
      11    H7      21.196585   18.768634   21.093380 H          1 MOL1         0.0832
      12    H8      19.681897   18.303778   20.373974 H          1 MOL1         0.0832
      13    C5      19.613335   20.241860   21.362147 C.3        1 MOL1         0.1218
      14    H9      20.434545   20.899723   21.042930 H          1 MOL1         0.0789
      15    C6      19.136587   20.708096   22.760573 C.3        1 MOL1        -0.1761
      16    H10     18.698239   21.710513   22.670742 H          1 MOL1         0.0832
      17    H11     18.315156   20.067361   23.103062 H          1 MOL1         0.0832
      18    C7      20.235023   20.766518   23.851366 C.3        1 MOL1        -0.1685
      19    H12     20.798073   21.703086   23.738985 H          1 MOL1         0.0832
      20    H13     19.747309   20.824223   24.833953 H          1 MOL1         0.0832
      21    O1      18.521734   20.403972   20.463647 O.3        1 MOL1        -0.5509
      22    H14     18.264443   21.348814   20.499043 H          1 MOL1         0.3779
@<TRIPOS>BOND
    1     1     2    1
    2     1     3    1
    3     1     4    1
    4     4     5    1
    5     4     6    1
    6     4     7    1
    7     7     8    1
    8     7     9    1
    9     7    10    1
   10    10    11    1
   11    10    12    1
   12    10    13    1
   13    13    14    1
   14    13    15    1
   15    15    16    1
   16    15    17    1
   17     1    18    1
   18    15    18    1
   19    18    19    1
   20    18    20    1
   21    13    21    1
   22    21    22    1
@<TRIPOS>SUBSTRUCTURE
       1 MOL1            1 RESIDUE      1      MOL     
@<SCITEGIC>MOL_PROPERTY
VConf Rank
SciTegic.value.IntegerValue
689

@<SCITEGIC>MOL_PROPERTY
Conf_Id
SciTegic.value.IntegerValue
141

@<SCITEGIC>MOL_PROPERTY
Delta U+W
SciTegic.value.DoubleValue
0.000

@<SCITEGIC>MOL_PROPERTY
U+W
SciTegic.value.DoubleValue
6.423

@<SCITEGIC>MOL_PROPERTY
Grad RMS
SciTegic.value.DoubleValue
0.000000

@<SCITEGIC>MOL_PROPERTY
U
SciTegic.value.DoubleValue
8.781

@<SCITEGIC>MOL_PROPERTY
W
SciTegic.value.DoubleValue
-2.358

@<SCITEGIC>MOL_PROPERTY
W(PB)
SciTegic.value.DoubleValue
-4.373

@<SCITEGIC>MOL_PROPERTY
W(SA)
SciTegic.value.DoubleValue
2.015

@<SCITEGIC>MOL_PROPERTY
Valence
SciTegic.value.DoubleValue
13.328

@<SCITEGIC>MOL_PROPERTY
Coulomb
SciTegic.value.DoubleValue
-8.387

@<SCITEGIC>MOL_PROPERTY
VdW
SciTegic.value.DoubleValue
3.840

@<SCITEGIC>MOL_PROPERTY
VdW6
SciTegic.value.DoubleValue
-9.744

@<SCITEGIC>MOL_PROPERTY
VdW12
SciTegic.value.DoubleValue
13.584

@<SCITEGIC>MOL_PROPERTY
Bond
SciTegic.value.DoubleValue
0.436

@<SCITEGIC>MOL_PROPERTY
Angle
SciTegic.value.DoubleValue
3.478

@<SCITEGIC>MOL_PROPERTY
Pdih
SciTegic.value.DoubleValue
9.415

@<SCITEGIC>MOL_PROPERTY
Idih
SciTegic.value.DoubleValue
0.000

@<SCITEGIC>MOL_PROPERTY
Tether
SciTegic.value.DoubleValue
0.000

@<TRIPOS>MOLECULE
guest-5_confgen4.mol2 : confsearch ligand conformer 690
          22          22           1
SMALL
USER_CHARGES
 
@<TRIPOS>ATOM
       1    C1      21.535845   20.293922   23.088913 C.3        1 MOL1        -0.1685
       2    H1      21.699154   20.530798   22.028805 H          1 MOL1         0.0832
       3    H2      22.406055   20.694032   23.627012 H          1 MOL1         0.0832
       4    C2      21.506477   18.763151   23.315922 C.3        1 MOL1        -0.1685
       5    H3      22.515223   18.364245   23.142250 H          1 MOL1         0.0832
       6    H4      21.281165   18.555741   24.370955 H          1 MOL1         0.0832
       7    C3      20.518301   17.982457   22.419062 C.3        1 MOL1        -0.1685
       8    H5      20.542358   16.926597   22.721398 H          1 MOL1         0.0832
       9    H6      20.873350   18.004576   21.379634 H          1 MOL1         0.0832
      10    C4      19.052818   18.478961   22.474043 C.3        1 MOL1        -0.1761
      11    H7      18.426109   17.717725   21.991093 H          1 MOL1         0.0832
      12    H8      18.705458   18.546199   23.513186 H          1 MOL1         0.0832
      13    C5      18.852455   19.828156   21.747991 C.3        1 MOL1         0.1218
      14    H9      19.551904   19.870246   20.900735 H          1 MOL1         0.0789
      15    C6      19.086510   21.074074   22.632414 C.3        1 MOL1        -0.1761
      16    H10     19.235556   21.931675   21.963718 H          1 MOL1         0.0832
      17    H11     18.173237   21.292081   23.202076 H          1 MOL1         0.0832
      18    C7      20.272765   21.006410   23.626530 C.3        1 MOL1        -0.1685
      19    H12     20.536622   22.034288   23.910555 H          1 MOL1         0.0832
      20    H13     19.946327   20.519413   24.555499 H          1 MOL1         0.0832
      21    O1      17.522205   19.886361   21.247725 O.3        1 MOL1        -0.5509
      22    H14     17.419163   19.131401   20.631254 H          1 MOL1         0.3779
@<TRIPOS>BOND
    1     1     2    1
    2     1     3    1
    3     1     4    1
    4     4     5    1
    5     4     6    1
    6     4     7    1
    7     7     8    1
    8     7     9    1
    9     7    10    1
   10    10    11    1
   11    10    12    1
   12    10    13    1
   13    13    14    1
   14    13    15    1
   15    15    16    1
   16    15    17    1
   17     1    18    1
   18    15    18    1
   19    18    19    1
   20    18    20    1
   21    13    21    1
   22    21    22    1
@<TRIPOS>SUBSTRUCTURE
       1 MOL1            1 RESIDUE      1      MOL     
@<SCITEGIC>MOL_PROPERTY
VConf Rank
SciTegic.value.IntegerValue
690

@<SCITEGIC>MOL_PROPERTY
Conf_Id
SciTegic.value.IntegerValue
144

@<SCITEGIC>MOL_PROPERTY
Delta U+W
SciTegic.value.DoubleValue
-3.291

@<SCITEGIC>MOL_PROPERTY
U+W
SciTegic.value.DoubleValue
3.132

@<SCITEGIC>MOL_PROPERTY
Grad RMS
SciTegic.value.DoubleValue
0.000000

@<SCITEGIC>MOL_PROPERTY
U
SciTegic.value.DoubleValue
5.411

@<SCITEGIC>MOL_PROPERTY
W
SciTegic.value.DoubleValue
-2.279

@<SCITEGIC>MOL_PROPERTY
W(PB)
SciTegic.value.DoubleValue
-4.300

@<SCITEGIC>MOL_PROPERTY
W(SA)
SciTegic.value.DoubleValue
2.021

@<SCITEGIC>MOL_PROPERTY
Valence
SciTegic.value.DoubleValue
11.909

@<SCITEGIC>MOL_PROPERTY
Coulomb
SciTegic.value.DoubleValue
-8.733

@<SCITEGIC>MOL_PROPERTY
VdW
SciTegic.value.DoubleValue
2.236

@<SCITEGIC>MOL_PROPERTY
VdW6
SciTegic.value.DoubleValue
-8.936

@<SCITEGIC>MOL_PROPERTY
VdW12
SciTegic.value.DoubleValue
11.172

@<SCITEGIC>MOL_PROPERTY
Bond
SciTegic.value.DoubleValue
0.223

@<SCITEGIC>MOL_PROPERTY
Angle
SciTegic.value.DoubleValue
2.457

@<SCITEGIC>MOL_PROPERTY
Pdih
SciTegic.value.DoubleValue
9.228

@<SCITEGIC>MOL_PROPERTY
Idih
SciTegic.value.DoubleValue
0.000

@<SCITEGIC>MOL_PROPERTY
Tether
SciTegic.value.DoubleValue
0.000

@<TRIPOS>MOLECULE
guest-5_confgen4.mol2 : confsearch ligand conformer 691
          22          22           1
SMALL
USER_CHARGES
 
@<TRIPOS>ATOM
       1    C1      21.322651   20.438436   23.207276 C.3        1 MOL1        -0.1685
       2    H1      22.332143   20.738402   23.520065 H          1 MOL1         0.0832
       3    H2      20.699895   21.339977   23.285255 H          1 MOL1         0.0832
       4    C2      20.827449   19.340914   24.177995 C.3        1 MOL1        -0.1685
       5    H3      21.231166   18.367947   23.866353 H          1 MOL1         0.0832
       6    H4      21.252410   19.528905   25.173518 H          1 MOL1         0.0832
       7    C3      19.289981   19.241566   24.327134 C.3        1 MOL1        -0.1685
       8    H5      18.953846   19.982776   25.065061 H          1 MOL1         0.0832
       9    H6      19.050756   18.260459   24.759823 H          1 MOL1         0.0832
      10    C4      18.460512   19.438038   23.034261 C.3        1 MOL1        -0.1761
      11    H7      17.459554   19.021698   23.210932 H          1 MOL1         0.0832
      12    H8      18.310143   20.511658   22.862149 H          1 MOL1         0.0832
      13    C5      19.068814   18.797706   21.766374 C.3        1 MOL1         0.1218
      14    H9      19.587766   17.867043   22.036605 H          1 MOL1         0.0789
      15    C6      20.048328   19.744387   21.036083 C.3        1 MOL1        -0.1761
      16    H10     20.243564   19.342587   20.032804 H          1 MOL1         0.0832
      17    H11     19.569602   20.720487   20.883980 H          1 MOL1         0.0832
      18    C7      21.409967   19.951663   21.740846 C.3        1 MOL1        -0.1685
      19    H12     21.986759   19.017538   21.700266 H          1 MOL1         0.0832
      20    H13     21.987647   20.685255   21.162126 H          1 MOL1         0.0832
      21    O1      18.010034   18.489219   20.869696 O.3        1 MOL1        -0.5509
      22    H14     17.573086   19.338964   20.654825 H          1 MOL1         0.3779
@<TRIPOS>BOND
    1     1     2    1
    2     1     3    1
    3     1     4    1
    4     4     5    1
    5     4     6    1
    6     4     7    1
    7     7     8    1
    8     7     9    1
    9     7    10    1
   10    10    11    1
   11    10    12    1
   12    10    13    1
   13    13    14    1
   14    13    15    1
   15    15    16    1
   16    15    17    1
   17     1    18    1
   18    15    18    1
   19    18    19    1
   20    18    20    1
   21    13    21    1
   22    21    22    1
@<TRIPOS>SUBSTRUCTURE
       1 MOL1            1 RESIDUE      1      MOL     
@<SCITEGIC>MOL_PROPERTY
VConf Rank
SciTegic.value.IntegerValue
691

@<SCITEGIC>MOL_PROPERTY
Conf_Id
SciTegic.value.IntegerValue
76

@<SCITEGIC>MOL_PROPERTY
Delta U+W
SciTegic.value.DoubleValue
-3.175

@<SCITEGIC>MOL_PROPERTY
U+W
SciTegic.value.DoubleValue
3.248

@<SCITEGIC>MOL_PROPERTY
Grad RMS
SciTegic.value.DoubleValue
0.000000

@<SCITEGIC>MOL_PROPERTY
U
SciTegic.value.DoubleValue
5.336

@<SCITEGIC>MOL_PROPERTY
W
SciTegic.value.DoubleValue
-2.088

@<SCITEGIC>MOL_PROPERTY
W(PB)
SciTegic.value.DoubleValue
-4.098

@<SCITEGIC>MOL_PROPERTY
W(SA)
SciTegic.value.DoubleValue
2.010

@<SCITEGIC>MOL_PROPERTY
Valence
SciTegic.value.DoubleValue
12.390

@<SCITEGIC>MOL_PROPERTY
Coulomb
SciTegic.value.DoubleValue
-9.270

@<SCITEGIC>MOL_PROPERTY
VdW
SciTegic.value.DoubleValue
2.216

@<SCITEGIC>MOL_PROPERTY
VdW6
SciTegic.value.DoubleValue
-8.967

@<SCITEGIC>MOL_PROPERTY
VdW12
SciTegic.value.DoubleValue
11.183

@<SCITEGIC>MOL_PROPERTY
Bond
SciTegic.value.DoubleValue
0.218

@<SCITEGIC>MOL_PROPERTY
Angle
SciTegic.value.DoubleValue
2.426

@<SCITEGIC>MOL_PROPERTY
Pdih
SciTegic.value.DoubleValue
9.745

@<SCITEGIC>MOL_PROPERTY
Idih
SciTegic.value.DoubleValue
0.000

@<SCITEGIC>MOL_PROPERTY
Tether
SciTegic.value.DoubleValue
0.000

@<TRIPOS>MOLECULE
guest-5_confgen4.mol2 : confsearch ligand conformer 692
          22          22           1
SMALL
USER_CHARGES
 
@<TRIPOS>ATOM
       1    C1      20.527254   18.210633   21.466009 C.3        1 MOL1        -0.1685
       2    H1      21.373916   18.208710   20.766051 H          1 MOL1         0.0832
       3    H2      20.051883   17.225786   21.361540 H          1 MOL1         0.0832
       4    C2      19.526987   19.300870   21.012661 C.3        1 MOL1        -0.1685
       5    H3      20.079622   20.163683   20.616900 H          1 MOL1         0.0832
       6    H4      18.954562   18.904135   20.163123 H          1 MOL1         0.0832
       7    C3      18.540537   19.778268   22.103785 C.3        1 MOL1        -0.1685
       8    H5      18.226945   18.942352   22.743894 H          1 MOL1         0.0832
       9    H6      17.630286   20.139165   21.606302 H          1 MOL1         0.0832
      10    C4      19.105964   20.942908   22.955833 C.3        1 MOL1        -0.1761
      11    H7      19.476663   21.731332   22.288389 H          1 MOL1         0.0832
      12    H8      18.280526   21.397628   23.519125 H          1 MOL1         0.0832
      13    C5      20.222144   20.575394   23.959911 C.3        1 MOL1         0.1218
      14    H9      20.630545   21.522677   24.340647 H          1 MOL1         0.0789
      15    C6      21.407321   19.774861   23.364101 C.3        1 MOL1        -0.1761
      16    H10     21.852601   20.334044   22.531083 H          1 MOL1         0.0832
      17    H11     22.188341   19.718025   24.133233 H          1 MOL1         0.0832
      18    C7      21.066208   18.331277   22.911415 C.3        1 MOL1        -0.1685
      19    H12     21.971706   17.714088   22.986073 H          1 MOL1         0.0832
      20    H13     20.347611   17.878203   23.606960 H          1 MOL1         0.0832
      21    O1      19.653348   19.865448   25.055572 O.3        1 MOL1        -0.5509
      22    H14     20.397250   19.608321   25.637619 H          1 MOL1         0.3779
@<TRIPOS>BOND
    1     1     2    1
    2     1     3    1
    3     1     4    1
    4     4     5    1
    5     4     6    1
    6     4     7    1
    7     7     8    1
    8     7     9    1
    9     7    10    1
   10    10    11    1
   11    10    12    1
   12    10    13    1
   13    13    14    1
   14    13    15    1
   15    15    16    1
   16    15    17    1
   17     1    18    1
   18    15    18    1
   19    18    19    1
   20    18    20    1
   21    13    21    1
   22    21    22    1
@<TRIPOS>SUBSTRUCTURE
       1 MOL1            1 RESIDUE      1      MOL     
@<SCITEGIC>MOL_PROPERTY
VConf Rank
SciTegic.value.IntegerValue
692

@<SCITEGIC>MOL_PROPERTY
Conf_Id
SciTegic.value.IntegerValue
95

@<SCITEGIC>MOL_PROPERTY
Delta U+W
SciTegic.value.DoubleValue
-2.289

@<SCITEGIC>MOL_PROPERTY
U+W
SciTegic.value.DoubleValue
4.134

@<SCITEGIC>MOL_PROPERTY
Grad RMS
SciTegic.value.DoubleValue
0.000000

@<SCITEGIC>MOL_PROPERTY
U
SciTegic.value.DoubleValue
6.373

@<SCITEGIC>MOL_PROPERTY
W
SciTegic.value.DoubleValue
-2.240

@<SCITEGIC>MOL_PROPERTY
W(PB)
SciTegic.value.DoubleValue
-4.254

@<SCITEGIC>MOL_PROPERTY
W(SA)
SciTegic.value.DoubleValue
2.015

@<SCITEGIC>MOL_PROPERTY
Valence
SciTegic.value.DoubleValue
12.093

@<SCITEGIC>MOL_PROPERTY
Coulomb
SciTegic.value.DoubleValue
-8.058

@<SCITEGIC>MOL_PROPERTY
VdW
SciTegic.value.DoubleValue
2.339

@<SCITEGIC>MOL_PROPERTY
VdW6
SciTegic.value.DoubleValue
-9.683

@<SCITEGIC>MOL_PROPERTY
VdW12
SciTegic.value.DoubleValue
12.022

@<SCITEGIC>MOL_PROPERTY
Bond
SciTegic.value.DoubleValue
0.268

@<SCITEGIC>MOL_PROPERTY
Angle
SciTegic.value.DoubleValue
3.005

@<SCITEGIC>MOL_PROPERTY
Pdih
SciTegic.value.DoubleValue
8.820

@<SCITEGIC>MOL_PROPERTY
Idih
SciTegic.value.DoubleValue
0.000

@<SCITEGIC>MOL_PROPERTY
Tether
SciTegic.value.DoubleValue
0.000

@<TRIPOS>MOLECULE
guest-5_confgen4.mol2 : confsearch ligand conformer 693
          22          22           1
SMALL
USER_CHARGES
 
@<TRIPOS>ATOM
       1    C1      20.240141   19.677351   24.607614 C.3        1 MOL1        -0.1685
       2    H1      20.565311   20.520637   25.232024 H          1 MOL1         0.0832
       3    H2      20.006555   18.862194   25.306002 H          1 MOL1         0.0832
       4    C2      21.430001   19.247962   23.716442 C.3        1 MOL1        -0.1685
       5    H3      22.001494   20.136566   23.416015 H          1 MOL1         0.0832
       6    H4      22.117159   18.651681   24.332122 H          1 MOL1         0.0832
       7    C3      21.046625   18.433083   22.459258 C.3        1 MOL1        -0.1685
       8    H5      20.216619   17.746182   22.673916 H          1 MOL1         0.0832
       9    H6      21.903378   17.801094   22.189092 H          1 MOL1         0.0832
      10    C4      20.720590   19.332865   21.240487 C.3        1 MOL1        -0.1761
      11    H7      21.529449   20.062737   21.106582 H          1 MOL1         0.0832
      12    H8      20.734005   18.714121   20.333868 H          1 MOL1         0.0832
      13    C5      19.374290   20.090790   21.293016 C.3        1 MOL1         0.1218
      14    H9      19.378460   20.803986   20.456096 H          1 MOL1         0.0789
      15    C6      19.130076   20.909043   22.585748 C.3        1 MOL1        -0.1761
      16    H10     19.941265   21.634277   22.728913 H          1 MOL1         0.0832
      17    H11     18.221156   21.503431   22.426390 H          1 MOL1         0.0832
      18    C7      18.934969   20.066083   23.872913 C.3        1 MOL1        -0.1685
      19    H12     18.309181   20.633759   24.574590 H          1 MOL1         0.0832
      20    H13     18.361100   19.159011   23.641580 H          1 MOL1         0.0832
      21    O1      18.306278   19.171157   21.086814 O.3        1 MOL1        -0.5509
      22    H14     18.518234   18.671803   20.272010 H          1 MOL1         0.3779
@<TRIPOS>BOND
    1     1     2    1
    2     1     3    1
    3     1     4    1
    4     4     5    1
    5     4     6    1
    6     4     7    1
    7     7     8    1
    8     7     9    1
    9     7    10    1
   10    10    11    1
   11    10    12    1
   12    10    13    1
   13    13    14    1
   14    13    15    1
   15    15    16    1
   16    15    17    1
   17     1    18    1
   18    15    18    1
   19    18    19    1
   20    18    20    1
   21    13    21    1
   22    21    22    1
@<TRIPOS>SUBSTRUCTURE
       1 MOL1            1 RESIDUE      1      MOL     
@<SCITEGIC>MOL_PROPERTY
VConf Rank
SciTegic.value.IntegerValue
693

@<SCITEGIC>MOL_PROPERTY
Conf_Id
SciTegic.value.IntegerValue
41

@<SCITEGIC>MOL_PROPERTY
Delta U+W
SciTegic.value.DoubleValue
-2.114

@<SCITEGIC>MOL_PROPERTY
U+W
SciTegic.value.DoubleValue
4.310

@<SCITEGIC>MOL_PROPERTY
Grad RMS
SciTegic.value.DoubleValue
0.000000

@<SCITEGIC>MOL_PROPERTY
U
SciTegic.value.DoubleValue
6.598

@<SCITEGIC>MOL_PROPERTY
W
SciTegic.value.DoubleValue
-2.289

@<SCITEGIC>MOL_PROPERTY
W(PB)
SciTegic.value.DoubleValue
-4.294

@<SCITEGIC>MOL_PROPERTY
W(SA)
SciTegic.value.DoubleValue
2.005

@<SCITEGIC>MOL_PROPERTY
Valence
SciTegic.value.DoubleValue
12.082

@<SCITEGIC>MOL_PROPERTY
Coulomb
SciTegic.value.DoubleValue
-7.801

@<SCITEGIC>MOL_PROPERTY
VdW
SciTegic.value.DoubleValue
2.317

@<SCITEGIC>MOL_PROPERTY
VdW6
SciTegic.value.DoubleValue
-9.658

@<SCITEGIC>MOL_PROPERTY
VdW12
SciTegic.value.DoubleValue
11.975

@<SCITEGIC>MOL_PROPERTY
Bond
SciTegic.value.DoubleValue
0.267

@<SCITEGIC>MOL_PROPERTY
Angle
SciTegic.value.DoubleValue
3.051

@<SCITEGIC>MOL_PROPERTY
Pdih
SciTegic.value.DoubleValue
8.764

@<SCITEGIC>MOL_PROPERTY
Idih
SciTegic.value.DoubleValue
0.000

@<SCITEGIC>MOL_PROPERTY
Tether
SciTegic.value.DoubleValue
0.000

@<TRIPOS>MOLECULE
guest-5_confgen4.mol2 : confsearch ligand conformer 694
          22          22           1
SMALL
USER_CHARGES
 
@<TRIPOS>ATOM
       1    C1      18.433282   19.557995   22.929228 C.3        1 MOL1        -0.1685
       2    H1      17.404540   19.470896   23.304264 H          1 MOL1         0.0832
       3    H2      18.398955   20.278325   22.100299 H          1 MOL1         0.0832
       4    C2      18.873364   18.165313   22.425093 C.3        1 MOL1        -0.1685
       5    H3      18.961458   17.477130   23.276695 H          1 MOL1         0.0832
       6    H4      18.078057   17.755515   21.787823 H          1 MOL1         0.0832
       7    C3      20.190607   18.158671   21.618838 C.3        1 MOL1        -0.1685
       8    H5      20.035470   18.673183   20.661185 H          1 MOL1         0.0832
       9    H6      20.422812   17.117249   21.358748 H          1 MOL1         0.0832
      10    C4      21.417313   18.763531   22.354042 C.3        1 MOL1        -0.1761
      11    H7      21.527178   18.303915   23.344467 H          1 MOL1         0.0832
      12    H8      22.315661   18.476204   21.792796 H          1 MOL1         0.0832
      13    C5      21.435994   20.308299   22.485848 C.3        1 MOL1         0.1218
      14    H9      22.471778   20.592063   22.722294 H          1 MOL1         0.0789
      15    C6      20.557449   20.901642   23.617768 C.3        1 MOL1        -0.1761
      16    H10     21.196439   21.055707   24.496982 H          1 MOL1         0.0832
      17    H11     20.225254   21.905934   23.323634 H          1 MOL1         0.0832
      18    C7      19.323054   20.086126   24.076137 C.3        1 MOL1        -0.1685
      19    H12     19.643505   19.250574   24.712988 H          1 MOL1         0.0832
      20    H13     18.714891   20.732828   24.723124 H          1 MOL1         0.0832
      21    O1      21.094833   20.918569   21.244035 O.3        1 MOL1        -0.5509
      22    H14     21.161992   21.885961   21.376518 H          1 MOL1         0.3779
@<TRIPOS>BOND
    1     1     2    1
    2     1     3    1
    3     1     4    1
    4     4     5    1
    5     4     6    1
    6     4     7    1
    7     7     8    1
    8     7     9    1
    9     7    10    1
   10    10    11    1
   11    10    12    1
   12    10    13    1
   13    13    14    1
   14    13    15    1
   15    15    16    1
   16    15    17    1
   17     1    18    1
   18    15    18    1
   19    18    19    1
   20    18    20    1
   21    13    21    1
   22    21    22    1
@<TRIPOS>SUBSTRUCTURE
       1 MOL1            1 RESIDUE      1      MOL     
@<SCITEGIC>MOL_PROPERTY
VConf Rank
SciTegic.value.IntegerValue
694

@<SCITEGIC>MOL_PROPERTY
Conf_Id
SciTegic.value.IntegerValue
104

@<SCITEGIC>MOL_PROPERTY
Delta U+W
SciTegic.value.DoubleValue
-1.172

@<SCITEGIC>MOL_PROPERTY
U+W
SciTegic.value.DoubleValue
5.252

@<SCITEGIC>MOL_PROPERTY
Grad RMS
SciTegic.value.DoubleValue
0.000000

@<SCITEGIC>MOL_PROPERTY
U
SciTegic.value.DoubleValue
7.482

@<SCITEGIC>MOL_PROPERTY
W
SciTegic.value.DoubleValue
-2.230

@<SCITEGIC>MOL_PROPERTY
W(PB)
SciTegic.value.DoubleValue
-4.220

@<SCITEGIC>MOL_PROPERTY
W(SA)
SciTegic.value.DoubleValue
1.990

@<SCITEGIC>MOL_PROPERTY
Valence
SciTegic.value.DoubleValue
12.309

@<SCITEGIC>MOL_PROPERTY
Coulomb
SciTegic.value.DoubleValue
-7.084

@<SCITEGIC>MOL_PROPERTY
VdW
SciTegic.value.DoubleValue
2.258

@<SCITEGIC>MOL_PROPERTY
VdW6
SciTegic.value.DoubleValue
-9.770

@<SCITEGIC>MOL_PROPERTY
VdW12
SciTegic.value.DoubleValue
12.028

@<SCITEGIC>MOL_PROPERTY
Bond
SciTegic.value.DoubleValue
0.284

@<SCITEGIC>MOL_PROPERTY
Angle
SciTegic.value.DoubleValue
3.491

@<SCITEGIC>MOL_PROPERTY
Pdih
SciTegic.value.DoubleValue
8.535

@<SCITEGIC>MOL_PROPERTY
Idih
SciTegic.value.DoubleValue
0.000

@<SCITEGIC>MOL_PROPERTY
Tether
SciTegic.value.DoubleValue
0.000

@<TRIPOS>MOLECULE
guest-5_confgen4.mol2 : confsearch ligand conformer 695
          22          22           1
SMALL
USER_CHARGES
 
@<TRIPOS>ATOM
       1    C1      20.673543   18.363224   21.755170 C.3        1 MOL1        -0.1685
       2    H1      21.029527   19.042323   20.968669 H          1 MOL1         0.0832
       3    H2      20.925094   17.349201   21.415435 H          1 MOL1         0.0832
       4    C2      19.136874   18.445154   21.901534 C.3        1 MOL1        -0.1685
       5    H3      18.676504   17.848374   21.102058 H          1 MOL1         0.0832
       6    H4      18.833633   17.952010   22.834374 H          1 MOL1         0.0832
       7    C3      18.531038   19.870019   21.835232 C.3        1 MOL1        -0.1685
       8    H5      17.575460   19.867215   22.377613 H          1 MOL1         0.0832
       9    H6      18.271962   20.089070   20.790327 H          1 MOL1         0.0832
      10    C4      19.408333   21.041136   22.354886 C.3        1 MOL1        -0.1761
      11    H7      20.145926   21.305503   21.586106 H          1 MOL1         0.0832
      12    H8      18.767046   21.926452   22.454727 H          1 MOL1         0.0832
      13    C5      20.145052   20.827711   23.697151 C.3        1 MOL1         0.1218
      14    H9      20.372685   21.822262   24.106945 H          1 MOL1         0.0789
      15    C6      21.494680   20.093446   23.530931 C.3        1 MOL1        -0.1761
      16    H10     22.113032   20.651879   22.816191 H          1 MOL1         0.0832
      17    H11     22.031164   20.142933   24.487477 H          1 MOL1         0.0832
      18    C7      21.425470   18.612039   23.084349 C.3        1 MOL1        -0.1685
      19    H12     22.455172   18.246341   22.971694 H          1 MOL1         0.0832
      20    H13     20.981808   18.002564   23.883212 H          1 MOL1         0.0832
      21    O1      19.317654   20.129081   24.614483 O.3        1 MOL1        -0.5509
      22    H14     19.092053   19.299587   24.148297 H          1 MOL1         0.3779
@<TRIPOS>BOND
    1     1     2    1
    2     1     3    1
    3     1     4    1
    4     4     5    1
    5     4     6    1
    6     4     7    1
    7     7     8    1
    8     7     9    1
    9     7    10    1
   10    10    11    1
   11    10    12    1
   12    10    13    1
   13    13    14    1
   14    13    15    1
   15    15    16    1
   16    15    17    1
   17     1    18    1
   18    15    18    1
   19    18    19    1
   20    18    20    1
   21    13    21    1
   22    21    22    1
@<TRIPOS>SUBSTRUCTURE
       1 MOL1            1 RESIDUE      1      MOL     
@<SCITEGIC>MOL_PROPERTY
VConf Rank
SciTegic.value.IntegerValue
695

@<SCITEGIC>MOL_PROPERTY
Conf_Id
SciTegic.value.IntegerValue
99

@<SCITEGIC>MOL_PROPERTY
Delta U+W
SciTegic.value.DoubleValue
-3.852

@<SCITEGIC>MOL_PROPERTY
U+W
SciTegic.value.DoubleValue
2.572

@<SCITEGIC>MOL_PROPERTY
Grad RMS
SciTegic.value.DoubleValue
0.000000

@<SCITEGIC>MOL_PROPERTY
U
SciTegic.value.DoubleValue
3.922

@<SCITEGIC>MOL_PROPERTY
W
SciTegic.value.DoubleValue
-1.350

@<SCITEGIC>MOL_PROPERTY
W(PB)
SciTegic.value.DoubleValue
-3.345

@<SCITEGIC>MOL_PROPERTY
W(SA)
SciTegic.value.DoubleValue
1.995

@<SCITEGIC>MOL_PROPERTY
Valence
SciTegic.value.DoubleValue
12.571

@<SCITEGIC>MOL_PROPERTY
Coulomb
SciTegic.value.DoubleValue
-10.581

@<SCITEGIC>MOL_PROPERTY
VdW
SciTegic.value.DoubleValue
1.932

@<SCITEGIC>MOL_PROPERTY
VdW6
SciTegic.value.DoubleValue
-10.483

@<SCITEGIC>MOL_PROPERTY
VdW12
SciTegic.value.DoubleValue
12.415

@<SCITEGIC>MOL_PROPERTY
Bond
SciTegic.value.DoubleValue
0.268

@<SCITEGIC>MOL_PROPERTY
Angle
SciTegic.value.DoubleValue
3.728

@<SCITEGIC>MOL_PROPERTY
Pdih
SciTegic.value.DoubleValue
8.575

@<SCITEGIC>MOL_PROPERTY
Idih
SciTegic.value.DoubleValue
0.000

@<SCITEGIC>MOL_PROPERTY
Tether
SciTegic.value.DoubleValue
0.000

@<TRIPOS>MOLECULE
guest-5_confgen4.mol2 : confsearch ligand conformer 696
          22          22           1
SMALL
USER_CHARGES
 
@<TRIPOS>ATOM
       1    C1      19.436442   19.571122   24.217042 C.3        1 MOL1        -0.1685
       2    H1      18.590889   19.632893   24.915981 H          1 MOL1         0.0832
       3    H2      20.314563   19.387831   24.850573 H          1 MOL1         0.0832
       4    C2      19.567769   20.948693   23.503668 C.3        1 MOL1        -0.1685
       5    H3      18.779162   21.606769   23.893957 H          1 MOL1         0.0832
       6    H4      20.509795   21.434986   23.790303 H          1 MOL1         0.0832
       7    C3      19.443637   20.927839   21.958707 C.3        1 MOL1        -0.1685
       8    H5      19.358487   21.964012   21.603996 H          1 MOL1         0.0832
       9    H6      18.494935   20.458772   21.669724 H          1 MOL1         0.0832
      10    C4      20.615932   20.257224   21.190052 C.3        1 MOL1        -0.1761
      11    H7      20.249068   19.955351   20.200594 H          1 MOL1         0.0832
      12    H8      21.383183   21.018352   20.995102 H          1 MOL1         0.0832
      13    C5      21.319644   19.042286   21.843406 C.3        1 MOL1         0.1218
      14    H9      21.946106   18.580455   21.066854 H          1 MOL1         0.0789
      15    C6      20.394421   17.929920   22.395447 C.3        1 MOL1        -0.1761
      16    H10     20.001556   17.352820   21.548479 H          1 MOL1         0.0832
      17    H11     21.022255   17.226965   22.959073 H          1 MOL1         0.0832
      18    C7      19.197966   18.348637   23.294320 C.3        1 MOL1        -0.1685
      19    H12     18.310518   18.521254   22.672864 H          1 MOL1         0.0832
      20    H13     18.931927   17.487386   23.922170 H          1 MOL1         0.0832
      21    O1      22.189264   19.491533   22.870626 O.3        1 MOL1        -0.5509
      22    H14     21.588351   19.890800   23.531248 H          1 MOL1         0.3779
@<TRIPOS>BOND
    1     1     2    1
    2     1     3    1
    3     1     4    1
    4     4     5    1
    5     4     6    1
    6     4     7    1
    7     7     8    1
    8     7     9    1
    9     7    10    1
   10    10    11    1
   11    10    12    1
   12    10    13    1
   13    13    14    1
   14    13    15    1
   15    15    16    1
   16    15    17    1
   17     1    18    1
   18    15    18    1
   19    18    19    1
   20    18    20    1
   21    13    21    1
   22    21    22    1
@<TRIPOS>SUBSTRUCTURE
       1 MOL1            1 RESIDUE      1      MOL     
@<SCITEGIC>MOL_PROPERTY
VConf Rank
SciTegic.value.IntegerValue
696

@<SCITEGIC>MOL_PROPERTY
Conf_Id
SciTegic.value.IntegerValue
98

@<SCITEGIC>MOL_PROPERTY
Delta U+W
SciTegic.value.DoubleValue
0.930

@<SCITEGIC>MOL_PROPERTY
U+W
SciTegic.value.DoubleValue
7.353

@<SCITEGIC>MOL_PROPERTY
Grad RMS
SciTegic.value.DoubleValue
0.000000

@<SCITEGIC>MOL_PROPERTY
U
SciTegic.value.DoubleValue
8.455

@<SCITEGIC>MOL_PROPERTY
W
SciTegic.value.DoubleValue
-1.102

@<SCITEGIC>MOL_PROPERTY
W(PB)
SciTegic.value.DoubleValue
-3.101

@<SCITEGIC>MOL_PROPERTY
W(SA)
SciTegic.value.DoubleValue
2.000

@<SCITEGIC>MOL_PROPERTY
Valence
SciTegic.value.DoubleValue
15.601

@<SCITEGIC>MOL_PROPERTY
Coulomb
SciTegic.value.DoubleValue
-10.573

@<SCITEGIC>MOL_PROPERTY
VdW
SciTegic.value.DoubleValue
3.427

@<SCITEGIC>MOL_PROPERTY
VdW6
SciTegic.value.DoubleValue
-11.360

@<SCITEGIC>MOL_PROPERTY
VdW12
SciTegic.value.DoubleValue
14.787

@<SCITEGIC>MOL_PROPERTY
Bond
SciTegic.value.DoubleValue
0.471

@<SCITEGIC>MOL_PROPERTY
Angle
SciTegic.value.DoubleValue
5.445

@<SCITEGIC>MOL_PROPERTY
Pdih
SciTegic.value.DoubleValue
9.685

@<SCITEGIC>MOL_PROPERTY
Idih
SciTegic.value.DoubleValue
0.000

@<SCITEGIC>MOL_PROPERTY
Tether
SciTegic.value.DoubleValue
0.000

@<TRIPOS>MOLECULE
guest-5_confgen4.mol2 : confsearch ligand conformer 697
          22          22           1
SMALL
USER_CHARGES
 
@<TRIPOS>ATOM
       1    C1      21.516231   20.131436   22.067187 C.3        1 MOL1        -0.1685
       2    H1      20.948792   20.945023   21.597219 H          1 MOL1         0.0832
       3    H2      22.569453   20.356277   21.850666 H          1 MOL1         0.0832
       4    C2      21.151703   18.782743   21.396138 C.3        1 MOL1        -0.1685
       5    H3      21.394292   18.868627   20.328126 H          1 MOL1         0.0832
       6    H4      21.803925   17.989713   21.786437 H          1 MOL1         0.0832
       7    C3      19.669706   18.332358   21.520566 C.3        1 MOL1        -0.1685
       8    H5      19.578506   17.543265   22.278214 H          1 MOL1         0.0832
       9    H6      19.377037   17.852988   20.576540 H          1 MOL1         0.0832
      10    C4      18.661494   19.469423   21.834097 C.3        1 MOL1        -0.1761
      11    H7      18.800926   20.283346   21.111799 H          1 MOL1         0.0832
      12    H8      17.647337   19.093648   21.642617 H          1 MOL1         0.0832
      13    C5      18.719386   20.050951   23.277130 C.3        1 MOL1         0.1218
      14    H9      18.697802   21.147714   23.201542 H          1 MOL1         0.0789
      15    C6      19.955676   19.649038   24.119929 C.3        1 MOL1        -0.1761
      16    H10     19.821274   20.016286   25.145659 H          1 MOL1         0.0832
      17    H11     20.000739   18.557182   24.211631 H          1 MOL1         0.0832
      18    C7      21.314963   20.179986   23.600084 C.3        1 MOL1        -0.1685
      19    H12     21.438796   21.221097   23.928058 H          1 MOL1         0.0832
      20    H13     22.119701   19.612852   24.087350 H          1 MOL1         0.0832
      21    O1      17.562561   19.618312   23.984064 O.3        1 MOL1        -0.5509
      22    H14     17.594957   20.043538   24.866284 H          1 MOL1         0.3779
@<TRIPOS>BOND
    1     1     2    1
    2     1     3    1
    3     1     4    1
    4     4     5    1
    5     4     6    1
    6     4     7    1
    7     7     8    1
    8     7     9    1
    9     7    10    1
   10    10    11    1
   11    10    12    1
   12    10    13    1
   13    13    14    1
   14    13    15    1
   15    15    16    1
   16    15    17    1
   17     1    18    1
   18    15    18    1
   19    18    19    1
   20    18    20    1
   21    13    21    1
   22    21    22    1
@<TRIPOS>SUBSTRUCTURE
       1 MOL1            1 RESIDUE      1      MOL     
@<SCITEGIC>MOL_PROPERTY
VConf Rank
SciTegic.value.IntegerValue
697

@<SCITEGIC>MOL_PROPERTY
Conf_Id
SciTegic.value.IntegerValue
141

@<SCITEGIC>MOL_PROPERTY
Delta U+W
SciTegic.value.DoubleValue
0.000

@<SCITEGIC>MOL_PROPERTY
U+W
SciTegic.value.DoubleValue
6.423

@<SCITEGIC>MOL_PROPERTY
Grad RMS
SciTegic.value.DoubleValue
0.000000

@<SCITEGIC>MOL_PROPERTY
U
SciTegic.value.DoubleValue
8.781

@<SCITEGIC>MOL_PROPERTY
W
SciTegic.value.DoubleValue
-2.358

@<SCITEGIC>MOL_PROPERTY
W(PB)
SciTegic.value.DoubleValue
-4.373

@<SCITEGIC>MOL_PROPERTY
W(SA)
SciTegic.value.DoubleValue
2.015

@<SCITEGIC>MOL_PROPERTY
Valence
SciTegic.value.DoubleValue
13.328

@<SCITEGIC>MOL_PROPERTY
Coulomb
SciTegic.value.DoubleValue
-8.387

@<SCITEGIC>MOL_PROPERTY
VdW
SciTegic.value.DoubleValue
3.840

@<SCITEGIC>MOL_PROPERTY
VdW6
SciTegic.value.DoubleValue
-9.744

@<SCITEGIC>MOL_PROPERTY
VdW12
SciTegic.value.DoubleValue
13.584

@<SCITEGIC>MOL_PROPERTY
Bond
SciTegic.value.DoubleValue
0.436

@<SCITEGIC>MOL_PROPERTY
Angle
SciTegic.value.DoubleValue
3.478

@<SCITEGIC>MOL_PROPERTY
Pdih
SciTegic.value.DoubleValue
9.415

@<SCITEGIC>MOL_PROPERTY
Idih
SciTegic.value.DoubleValue
0.000

@<SCITEGIC>MOL_PROPERTY
Tether
SciTegic.value.DoubleValue
0.000

@<TRIPOS>MOLECULE
guest-5_confgen4.mol2 : confsearch ligand conformer 698
          22          22           1
SMALL
USER_CHARGES
 
@<TRIPOS>ATOM
       1    C1      20.168328   20.422690   21.120683 C.3        1 MOL1        -0.1685
       2    H1      20.878800   19.640979   20.819408 H          1 MOL1         0.0832
       3    H2      20.056215   21.083083   20.249927 H          1 MOL1         0.0832
       4    C2      20.738617   21.270894   22.282997 C.3        1 MOL1        -0.1685
       5    H3      21.584454   21.860439   21.903718 H          1 MOL1         0.0832
       6    H4      19.984740   22.002823   22.603665 H          1 MOL1         0.0832
       7    C3      21.224000   20.465750   23.510382 C.3        1 MOL1        -0.1685
       8    H5      21.538974   21.178527   24.284699 H          1 MOL1         0.0832
       9    H6      22.125322   19.898181   23.241226 H          1 MOL1         0.0832
      10    C4      20.173230   19.505975   24.120213 C.3        1 MOL1        -0.1761
      11    H7      20.550528   19.178705   25.097978 H          1 MOL1         0.0832
      12    H8      19.232714   20.036461   24.317726 H          1 MOL1         0.0832
      13    C5      19.918549   18.262547   23.238933 C.3        1 MOL1         0.1218
      14    H9      20.857275   18.004829   22.727838 H          1 MOL1         0.0789
      15    C6      18.818917   18.448579   22.168654 C.3        1 MOL1        -0.1761
      16    H10     18.947028   17.655384   21.420804 H          1 MOL1         0.0832
      17    H11     17.834945   18.275762   22.624771 H          1 MOL1         0.0832
      18    C7      18.782292   19.816236   21.441868 C.3        1 MOL1        -0.1685
      19    H12     18.223265   19.687833   20.504945 H          1 MOL1         0.0832
      20    H13     18.199084   20.532676   22.036252 H          1 MOL1         0.0832
      21    O1      19.539424   17.177075   24.076330 O.3        1 MOL1        -0.5509
      22    H14     20.282357   17.027081   24.697755 H          1 MOL1         0.3779
@<TRIPOS>BOND
    1     1     2    1
    2     1     3    1
    3     1     4    1
    4     4     5    1
    5     4     6    1
    6     4     7    1
    7     7     8    1
    8     7     9    1
    9     7    10    1
   10    10    11    1
   11    10    12    1
   12    10    13    1
   13    13    14    1
   14    13    15    1
   15    15    16    1
   16    15    17    1
   17     1    18    1
   18    15    18    1
   19    18    19    1
   20    18    20    1
   21    13    21    1
   22    21    22    1
@<TRIPOS>SUBSTRUCTURE
       1 MOL1            1 RESIDUE      1      MOL     
@<SCITEGIC>MOL_PROPERTY
VConf Rank
SciTegic.value.IntegerValue
698

@<SCITEGIC>MOL_PROPERTY
Conf_Id
SciTegic.value.IntegerValue
144

@<SCITEGIC>MOL_PROPERTY
Delta U+W
SciTegic.value.DoubleValue
-3.291

@<SCITEGIC>MOL_PROPERTY
U+W
SciTegic.value.DoubleValue
3.132

@<SCITEGIC>MOL_PROPERTY
Grad RMS
SciTegic.value.DoubleValue
0.000000

@<SCITEGIC>MOL_PROPERTY
U
SciTegic.value.DoubleValue
5.411

@<SCITEGIC>MOL_PROPERTY
W
SciTegic.value.DoubleValue
-2.279

@<SCITEGIC>MOL_PROPERTY
W(PB)
SciTegic.value.DoubleValue
-4.300

@<SCITEGIC>MOL_PROPERTY
W(SA)
SciTegic.value.DoubleValue
2.021

@<SCITEGIC>MOL_PROPERTY
Valence
SciTegic.value.DoubleValue
11.909

@<SCITEGIC>MOL_PROPERTY
Coulomb
SciTegic.value.DoubleValue
-8.733

@<SCITEGIC>MOL_PROPERTY
VdW
SciTegic.value.DoubleValue
2.236

@<SCITEGIC>MOL_PROPERTY
VdW6
SciTegic.value.DoubleValue
-8.936

@<SCITEGIC>MOL_PROPERTY
VdW12
SciTegic.value.DoubleValue
11.172

@<SCITEGIC>MOL_PROPERTY
Bond
SciTegic.value.DoubleValue
0.223

@<SCITEGIC>MOL_PROPERTY
Angle
SciTegic.value.DoubleValue
2.457

@<SCITEGIC>MOL_PROPERTY
Pdih
SciTegic.value.DoubleValue
9.228

@<SCITEGIC>MOL_PROPERTY
Idih
SciTegic.value.DoubleValue
0.000

@<SCITEGIC>MOL_PROPERTY
Tether
SciTegic.value.DoubleValue
0.000

@<TRIPOS>MOLECULE
guest-5_confgen4.mol2 : confsearch ligand conformer 699
          22          22           1
SMALL
USER_CHARGES
 
@<TRIPOS>ATOM
       1    C1      18.872897   18.214608   22.382196 C.3        1 MOL1        -0.1685
       2    H1      18.000397   17.582983   22.166131 H          1 MOL1         0.0832
       3    H2      19.710524   17.525992   22.557899 H          1 MOL1         0.0832
       4    C2      18.562696   19.040528   23.652513 C.3        1 MOL1        -0.1685
       5    H3      17.970107   19.924003   23.378497 H          1 MOL1         0.0832
       6    H4      17.915473   18.447213   24.312875 H          1 MOL1         0.0832
       7    C3      19.802309   19.479463   24.468979 C.3        1 MOL1        -0.1685
       8    H5      20.103264   18.656747   25.131912 H          1 MOL1         0.0832
       9    H6      19.501557   20.302009   25.132293 H          1 MOL1         0.0832
      10    C4      21.042429   19.918521   23.651991 C.3        1 MOL1        -0.1761
      11    H7      21.694045   20.500780   24.317455 H          1 MOL1         0.0832
      12    H8      21.622026   19.029728   23.370906 H          1 MOL1         0.0832
      13    C5      20.728480   20.745375   22.384970 C.3        1 MOL1         0.1218
      14    H9      19.848078   21.378034   22.566915 H          1 MOL1         0.0789
      15    C6      20.481536   19.857515   21.144124 C.3        1 MOL1        -0.1761
      16    H10     20.518267   20.489408   20.246632 H          1 MOL1         0.0832
      17    H11     21.302340   19.135930   21.040773 H          1 MOL1         0.0832
      18    C7      19.134095   19.097197   21.138088 C.3        1 MOL1        -0.1685
      19    H12     18.311257   19.815672   21.021231 H          1 MOL1         0.0832
      20    H13     19.103848   18.459787   20.243895 H          1 MOL1         0.0832
      21    O1      21.844800   21.580628   22.108575 O.3        1 MOL1        -0.5509
      22    H14     22.605648   20.983506   21.954579 H          1 MOL1         0.3779
@<TRIPOS>BOND
    1     1     2    1
    2     1     3    1
    3     1     4    1
    4     4     5    1
    5     4     6    1
    6     4     7    1
    7     7     8    1
    8     7     9    1
    9     7    10    1
   10    10    11    1
   11    10    12    1
   12    10    13    1
   13    13    14    1
   14    13    15    1
   15    15    16    1
   16    15    17    1
   17     1    18    1
   18    15    18    1
   19    18    19    1
   20    18    20    1
   21    13    21    1
   22    21    22    1
@<TRIPOS>SUBSTRUCTURE
       1 MOL1            1 RESIDUE      1      MOL     
@<SCITEGIC>MOL_PROPERTY
VConf Rank
SciTegic.value.IntegerValue
699

@<SCITEGIC>MOL_PROPERTY
Conf_Id
SciTegic.value.IntegerValue
76

@<SCITEGIC>MOL_PROPERTY
Delta U+W
SciTegic.value.DoubleValue
-3.175

@<SCITEGIC>MOL_PROPERTY
U+W
SciTegic.value.DoubleValue
3.248

@<SCITEGIC>MOL_PROPERTY
Grad RMS
SciTegic.value.DoubleValue
0.000000

@<SCITEGIC>MOL_PROPERTY
U
SciTegic.value.DoubleValue
5.336

@<SCITEGIC>MOL_PROPERTY
W
SciTegic.value.DoubleValue
-2.088

@<SCITEGIC>MOL_PROPERTY
W(PB)
SciTegic.value.DoubleValue
-4.098

@<SCITEGIC>MOL_PROPERTY
W(SA)
SciTegic.value.DoubleValue
2.010

@<SCITEGIC>MOL_PROPERTY
Valence
SciTegic.value.DoubleValue
12.390

@<SCITEGIC>MOL_PROPERTY
Coulomb
SciTegic.value.DoubleValue
-9.270

@<SCITEGIC>MOL_PROPERTY
VdW
SciTegic.value.DoubleValue
2.216

@<SCITEGIC>MOL_PROPERTY
VdW6
SciTegic.value.DoubleValue
-8.967

@<SCITEGIC>MOL_PROPERTY
VdW12
SciTegic.value.DoubleValue
11.183

@<SCITEGIC>MOL_PROPERTY
Bond
SciTegic.value.DoubleValue
0.218

@<SCITEGIC>MOL_PROPERTY
Angle
SciTegic.value.DoubleValue
2.426

@<SCITEGIC>MOL_PROPERTY
Pdih
SciTegic.value.DoubleValue
9.745

@<SCITEGIC>MOL_PROPERTY
Idih
SciTegic.value.DoubleValue
0.000

@<SCITEGIC>MOL_PROPERTY
Tether
SciTegic.value.DoubleValue
0.000

@<TRIPOS>MOLECULE
guest-5_confgen4.mol2 : confsearch ligand conformer 700
          22          22           1
SMALL
USER_CHARGES
 
@<TRIPOS>ATOM
       1    C1      21.375384   20.850195   23.060829 C.3        1 MOL1        -0.1685
       2    H1      21.316184   21.660592   23.800108 H          1 MOL1         0.0832
       3    H2      22.389824   20.901901   22.642437 H          1 MOL1         0.0832
       4    C2      20.353675   21.145058   21.936622 C.3        1 MOL1        -0.1685
       5    H3      19.453282   21.601154   22.369923 H          1 MOL1         0.0832
       6    H4      20.784370   21.912739   21.279392 H          1 MOL1         0.0832
       7    C3      19.949944   19.921155   21.081869 C.3        1 MOL1        -0.1685
       8    H5      20.808395   19.255802   20.916940 H          1 MOL1         0.0832
       9    H6      19.649519   20.282607   20.089201 H          1 MOL1         0.0832
      10    C4      18.753628   19.139046   21.681215 C.3        1 MOL1        -0.1761
      11    H7      17.938531   19.840053   21.901937 H          1 MOL1         0.0832
      12    H8      18.358979   18.460453   20.913636 H          1 MOL1         0.0832
      13    C5      19.049082   18.304535   22.948258 C.3        1 MOL1         0.1218
      14    H9      18.078026   17.970516   23.341423 H          1 MOL1         0.0789
      15    C6      19.764056   19.070080   24.089854 C.3        1 MOL1        -0.1761
      16    H10     19.171775   19.948650   24.376552 H          1 MOL1         0.0832
      17    H11     19.771262   18.417384   24.972307 H          1 MOL1         0.0832
      18    C7      21.225315   19.491757   23.786329 C.3        1 MOL1        -0.1685
      19    H12     21.779700   19.552016   24.732611 H          1 MOL1         0.0832
      20    H13     21.729698   18.709962   23.203375 H          1 MOL1         0.0832
      21    O1      19.801471   17.150932   22.586134 O.3        1 MOL1        -0.5509
      22    H14     20.010119   16.681222   23.419275 H          1 MOL1         0.3779
@<TRIPOS>BOND
    1     1     2    1
    2     1     3    1
    3     1     4    1
    4     4     5    1
    5     4     6    1
    6     4     7    1
    7     7     8    1
    8     7     9    1
    9     7    10    1
   10    10    11    1
   11    10    12    1
   12    10    13    1
   13    13    14    1
   14    13    15    1
   15    15    16    1
   16    15    17    1
   17     1    18    1
   18    15    18    1
   19    18    19    1
   20    18    20    1
   21    13    21    1
   22    21    22    1
@<TRIPOS>SUBSTRUCTURE
       1 MOL1            1 RESIDUE      1      MOL     
@<SCITEGIC>MOL_PROPERTY
VConf Rank
SciTegic.value.IntegerValue
700

@<SCITEGIC>MOL_PROPERTY
Conf_Id
SciTegic.value.IntegerValue
95

@<SCITEGIC>MOL_PROPERTY
Delta U+W
SciTegic.value.DoubleValue
-2.289

@<SCITEGIC>MOL_PROPERTY
U+W
SciTegic.value.DoubleValue
4.134

@<SCITEGIC>MOL_PROPERTY
Grad RMS
SciTegic.value.DoubleValue
0.000000

@<SCITEGIC>MOL_PROPERTY
U
SciTegic.value.DoubleValue
6.373

@<SCITEGIC>MOL_PROPERTY
W
SciTegic.value.DoubleValue
-2.240

@<SCITEGIC>MOL_PROPERTY
W(PB)
SciTegic.value.DoubleValue
-4.254

@<SCITEGIC>MOL_PROPERTY
W(SA)
SciTegic.value.DoubleValue
2.015

@<SCITEGIC>MOL_PROPERTY
Valence
SciTegic.value.DoubleValue
12.093

@<SCITEGIC>MOL_PROPERTY
Coulomb
SciTegic.value.DoubleValue
-8.058

@<SCITEGIC>MOL_PROPERTY
VdW
SciTegic.value.DoubleValue
2.339

@<SCITEGIC>MOL_PROPERTY
VdW6
SciTegic.value.DoubleValue
-9.683

@<SCITEGIC>MOL_PROPERTY
VdW12
SciTegic.value.DoubleValue
12.022

@<SCITEGIC>MOL_PROPERTY
Bond
SciTegic.value.DoubleValue
0.268

@<SCITEGIC>MOL_PROPERTY
Angle
SciTegic.value.DoubleValue
3.005

@<SCITEGIC>MOL_PROPERTY
Pdih
SciTegic.value.DoubleValue
8.820

@<SCITEGIC>MOL_PROPERTY
Idih
SciTegic.value.DoubleValue
0.000

@<SCITEGIC>MOL_PROPERTY
Tether
SciTegic.value.DoubleValue
0.000

@<TRIPOS>MOLECULE
guest-5_confgen4.mol2 : confsearch ligand conformer 701
          22          22           1
SMALL
USER_CHARGES
 
@<TRIPOS>ATOM
       1    C1      19.797432   18.075032   21.621337 C.3        1 MOL1        -0.1685
       2    H1      19.055666   17.917224   20.826583 H          1 MOL1         0.0832
       3    H2      20.407633   17.161858   21.644948 H          1 MOL1         0.0832
       4    C2      19.044423   18.209258   22.966436 C.3        1 MOL1        -0.1685
       5    H3      18.097341   18.741375   22.804059 H          1 MOL1         0.0832
       6    H4      18.761197   17.201220   23.298764 H          1 MOL1         0.0832
       7    C3      19.839074   18.905465   24.095746 C.3        1 MOL1        -0.1685
       8    H5      20.900415   18.624120   24.060821 H          1 MOL1         0.0832
       9    H6      19.457392   18.536905   25.057467 H          1 MOL1         0.0832
      10    C4      19.673118   20.446097   24.080939 C.3        1 MOL1        -0.1761
      11    H7      18.604467   20.691514   24.029431 H          1 MOL1         0.0832
      12    H8      20.017253   20.845427   25.043793 H          1 MOL1         0.0832
      13    C5      20.408823   21.200485   22.949845 C.3        1 MOL1         0.1218
      14    H9      20.051127   22.239932   22.976382 H          1 MOL1         0.0789
      15    C6      20.142708   20.664990   21.520593 C.3        1 MOL1        -0.1761
      16    H10     19.066364   20.685635   21.307181 H          1 MOL1         0.0832
      17    H11     20.601224   21.373191   20.818422 H          1 MOL1         0.0832
      18    C7      20.717706   19.254822   21.226921 C.3        1 MOL1        -0.1685
      19    H12     20.925249   19.175729   20.151334 H          1 MOL1         0.0832
      20    H13     21.692319   19.139225   21.719248 H          1 MOL1         0.0832
      21    O1      21.807757   21.205796   23.217895 O.3        1 MOL1        -0.5509
      22    H14     21.917649   21.534517   24.133347 H          1 MOL1         0.3779
@<TRIPOS>BOND
    1     1     2    1
    2     1     3    1
    3     1     4    1
    4     4     5    1
    5     4     6    1
    6     4     7    1
    7     7     8    1
    8     7     9    1
    9     7    10    1
   10    10    11    1
   11    10    12    1
   12    10    13    1
   13    13    14    1
   14    13    15    1
   15    15    16    1
   16    15    17    1
   17     1    18    1
   18    15    18    1
   19    18    19    1
   20    18    20    1
   21    13    21    1
   22    21    22    1
@<TRIPOS>SUBSTRUCTURE
       1 MOL1            1 RESIDUE      1      MOL     
@<SCITEGIC>MOL_PROPERTY
VConf Rank
SciTegic.value.IntegerValue
701

@<SCITEGIC>MOL_PROPERTY
Conf_Id
SciTegic.value.IntegerValue
41

@<SCITEGIC>MOL_PROPERTY
Delta U+W
SciTegic.value.DoubleValue
-2.114

@<SCITEGIC>MOL_PROPERTY
U+W
SciTegic.value.DoubleValue
4.310

@<SCITEGIC>MOL_PROPERTY
Grad RMS
SciTegic.value.DoubleValue
0.000000

@<SCITEGIC>MOL_PROPERTY
U
SciTegic.value.DoubleValue
6.598

@<SCITEGIC>MOL_PROPERTY
W
SciTegic.value.DoubleValue
-2.289

@<SCITEGIC>MOL_PROPERTY
W(PB)
SciTegic.value.DoubleValue
-4.294

@<SCITEGIC>MOL_PROPERTY
W(SA)
SciTegic.value.DoubleValue
2.005

@<SCITEGIC>MOL_PROPERTY
Valence
SciTegic.value.DoubleValue
12.082

@<SCITEGIC>MOL_PROPERTY
Coulomb
SciTegic.value.DoubleValue
-7.801

@<SCITEGIC>MOL_PROPERTY
VdW
SciTegic.value.DoubleValue
2.317

@<SCITEGIC>MOL_PROPERTY
VdW6
SciTegic.value.DoubleValue
-9.658

@<SCITEGIC>MOL_PROPERTY
VdW12
SciTegic.value.DoubleValue
11.975

@<SCITEGIC>MOL_PROPERTY
Bond
SciTegic.value.DoubleValue
0.267

@<SCITEGIC>MOL_PROPERTY
Angle
SciTegic.value.DoubleValue
3.051

@<SCITEGIC>MOL_PROPERTY
Pdih
SciTegic.value.DoubleValue
8.764

@<SCITEGIC>MOL_PROPERTY
Idih
SciTegic.value.DoubleValue
0.000

@<SCITEGIC>MOL_PROPERTY
Tether
SciTegic.value.DoubleValue
0.000

@<TRIPOS>MOLECULE
guest-5_confgen4.mol2 : confsearch ligand conformer 702
          22          22           1
SMALL
USER_CHARGES
 
@<TRIPOS>ATOM
       1    C1      21.640722   18.941931   22.661182 C.3        1 MOL1        -0.1685
       2    H1      22.608008   18.463411   22.865942 H          1 MOL1         0.0832
       3    H2      21.577639   19.054504   21.570070 H          1 MOL1         0.0832
       4    C2      21.639173   20.322998   23.354030 C.3        1 MOL1        -0.1685
       5    H3      21.639774   20.187333   24.444065 H          1 MOL1         0.0832
       6    H4      22.579854   20.836890   23.114043 H          1 MOL1         0.0832
       7    C3      20.467858   21.245034   22.950185 C.3        1 MOL1        -0.1685
       8    H5      20.588769   21.551935   21.902769 H          1 MOL1         0.0832
       9    H6      20.546556   22.169231   23.538227 H          1 MOL1         0.0832
      10    C4      19.051651   20.646672   23.168148 C.3        1 MOL1        -0.1761
      11    H7      18.956136   20.268866   24.194013 H          1 MOL1         0.0832
      12    H8      18.328047   21.467816   23.086270 H          1 MOL1         0.0832
      13    C5      18.615084   19.551383   22.161280 C.3        1 MOL1         0.1218
      14    H9      17.521473   19.467872   22.240774 H          1 MOL1         0.0789
      15    C6      19.176080   18.129386   22.422713 C.3        1 MOL1        -0.1761
      16    H10     18.425180   17.568933   22.994643 H          1 MOL1         0.0832
      17    H11     19.264720   17.598285   21.465871 H          1 MOL1         0.0832
      18    C7      20.521733   18.012381   23.180622 C.3        1 MOL1        -0.1685
      19    H12     20.362033   18.186278   24.253315 H          1 MOL1         0.0832
      20    H13     20.863589   16.971641   23.098930 H          1 MOL1         0.0832
      21    O1      18.920971   19.949952   20.827678 O.3        1 MOL1        -0.5509
      22    H14     18.588838   19.242898   20.238040 H          1 MOL1         0.3779
@<TRIPOS>BOND
    1     1     2    1
    2     1     3    1
    3     1     4    1
    4     4     5    1
    5     4     6    1
    6     4     7    1
    7     7     8    1
    8     7     9    1
    9     7    10    1
   10    10    11    1
   11    10    12    1
   12    10    13    1
   13    13    14    1
   14    13    15    1
   15    15    16    1
   16    15    17    1
   17     1    18    1
   18    15    18    1
   19    18    19    1
   20    18    20    1
   21    13    21    1
   22    21    22    1
@<TRIPOS>SUBSTRUCTURE
       1 MOL1            1 RESIDUE      1      MOL     
@<SCITEGIC>MOL_PROPERTY
VConf Rank
SciTegic.value.IntegerValue
702

@<SCITEGIC>MOL_PROPERTY
Conf_Id
SciTegic.value.IntegerValue
104

@<SCITEGIC>MOL_PROPERTY
Delta U+W
SciTegic.value.DoubleValue
-1.172

@<SCITEGIC>MOL_PROPERTY
U+W
SciTegic.value.DoubleValue
5.252

@<SCITEGIC>MOL_PROPERTY
Grad RMS
SciTegic.value.DoubleValue
0.000000

@<SCITEGIC>MOL_PROPERTY
U
SciTegic.value.DoubleValue
7.482

@<SCITEGIC>MOL_PROPERTY
W
SciTegic.value.DoubleValue
-2.230

@<SCITEGIC>MOL_PROPERTY
W(PB)
SciTegic.value.DoubleValue
-4.220

@<SCITEGIC>MOL_PROPERTY
W(SA)
SciTegic.value.DoubleValue
1.990

@<SCITEGIC>MOL_PROPERTY
Valence
SciTegic.value.DoubleValue
12.309

@<SCITEGIC>MOL_PROPERTY
Coulomb
SciTegic.value.DoubleValue
-7.084

@<SCITEGIC>MOL_PROPERTY
VdW
SciTegic.value.DoubleValue
2.258

@<SCITEGIC>MOL_PROPERTY
VdW6
SciTegic.value.DoubleValue
-9.770

@<SCITEGIC>MOL_PROPERTY
VdW12
SciTegic.value.DoubleValue
12.028

@<SCITEGIC>MOL_PROPERTY
Bond
SciTegic.value.DoubleValue
0.284

@<SCITEGIC>MOL_PROPERTY
Angle
SciTegic.value.DoubleValue
3.491

@<SCITEGIC>MOL_PROPERTY
Pdih
SciTegic.value.DoubleValue
8.535

@<SCITEGIC>MOL_PROPERTY
Idih
SciTegic.value.DoubleValue
0.000

@<SCITEGIC>MOL_PROPERTY
Tether
SciTegic.value.DoubleValue
0.000

@<TRIPOS>MOLECULE
guest-5_confgen4.mol2 : confsearch ligand conformer 703
          22          22           1
SMALL
USER_CHARGES
 
@<TRIPOS>ATOM
       1    C1      21.590202   19.898719   23.197370 C.3        1 MOL1        -0.1685
       2    H1      22.043464   19.660542   22.225615 H          1 MOL1         0.0832
       3    H2      22.424327   20.152701   23.865703 H          1 MOL1         0.0832
       4    C2      20.870012   18.665021   23.787962 C.3        1 MOL1        -0.1685
       5    H3      21.621967   18.003281   24.239529 H          1 MOL1         0.0832
       6    H4      20.232183   18.981739   24.623546 H          1 MOL1         0.0832
       7    C3      20.044576   17.823774   22.781665 C.3        1 MOL1        -0.1685
       8    H5      19.256791   17.294149   23.335025 H          1 MOL1         0.0832
       9    H6      20.692806   17.036495   22.373107 H          1 MOL1         0.0832
      10    C4      19.407132   18.574488   21.581125 C.3        1 MOL1        -0.1761
      11    H7      20.177289   18.752678   20.819507 H          1 MOL1         0.0832
      12    H8      18.683062   17.900172   21.105708 H          1 MOL1         0.0832
      13    C5      18.691404   19.910564   21.885455 C.3        1 MOL1         0.1218
      14    H9      17.985571   20.098008   21.063539 H          1 MOL1         0.0789
      15    C6      19.659566   21.114422   21.926163 C.3        1 MOL1        -0.1761
      16    H10     20.206773   21.157804   20.975509 H          1 MOL1         0.0832
      17    H11     19.060835   22.033817   21.964625 H          1 MOL1         0.0832
      18    C7      20.677631   21.143844   23.092983 C.3        1 MOL1        -0.1685
      19    H12     21.315216   22.028547   22.960708 H          1 MOL1         0.0832
      20    H13     20.150107   21.299990   24.043676 H          1 MOL1         0.0832
      21    O1      17.968355   19.822733   23.103509 O.3        1 MOL1        -0.5509
      22    H14     18.644440   19.574034   23.764829 H          1 MOL1         0.3779
@<TRIPOS>BOND
    1     1     2    1
    2     1     3    1
    3     1     4    1
    4     4     5    1
    5     4     6    1
    6     4     7    1
    7     7     8    1
    8     7     9    1
    9     7    10    1
   10    10    11    1
   11    10    12    1
   12    10    13    1
   13    13    14    1
   14    13    15    1
   15    15    16    1
   16    15    17    1
   17     1    18    1
   18    15    18    1
   19    18    19    1
   20    18    20    1
   21    13    21    1
   22    21    22    1
@<TRIPOS>SUBSTRUCTURE
       1 MOL1            1 RESIDUE      1      MOL     
@<SCITEGIC>MOL_PROPERTY
VConf Rank
SciTegic.value.IntegerValue
703

@<SCITEGIC>MOL_PROPERTY
Conf_Id
SciTegic.value.IntegerValue
99

@<SCITEGIC>MOL_PROPERTY
Delta U+W
SciTegic.value.DoubleValue
-3.852

@<SCITEGIC>MOL_PROPERTY
U+W
SciTegic.value.DoubleValue
2.572

@<SCITEGIC>MOL_PROPERTY
Grad RMS
SciTegic.value.DoubleValue
0.000000

@<SCITEGIC>MOL_PROPERTY
U
SciTegic.value.DoubleValue
3.922

@<SCITEGIC>MOL_PROPERTY
W
SciTegic.value.DoubleValue
-1.350

@<SCITEGIC>MOL_PROPERTY
W(PB)
SciTegic.value.DoubleValue
-3.345

@<SCITEGIC>MOL_PROPERTY
W(SA)
SciTegic.value.DoubleValue
1.995

@<SCITEGIC>MOL_PROPERTY
Valence
SciTegic.value.DoubleValue
12.571

@<SCITEGIC>MOL_PROPERTY
Coulomb
SciTegic.value.DoubleValue
-10.581

@<SCITEGIC>MOL_PROPERTY
VdW
SciTegic.value.DoubleValue
1.932

@<SCITEGIC>MOL_PROPERTY
VdW6
SciTegic.value.DoubleValue
-10.483

@<SCITEGIC>MOL_PROPERTY
VdW12
SciTegic.value.DoubleValue
12.415

@<SCITEGIC>MOL_PROPERTY
Bond
SciTegic.value.DoubleValue
0.268

@<SCITEGIC>MOL_PROPERTY
Angle
SciTegic.value.DoubleValue
3.728

@<SCITEGIC>MOL_PROPERTY
Pdih
SciTegic.value.DoubleValue
8.575

@<SCITEGIC>MOL_PROPERTY
Idih
SciTegic.value.DoubleValue
0.000

@<SCITEGIC>MOL_PROPERTY
Tether
SciTegic.value.DoubleValue
0.000

@<TRIPOS>MOLECULE
guest-5_confgen4.mol2 : confsearch ligand conformer 704
          22          22           1
SMALL
USER_CHARGES
 
@<TRIPOS>ATOM
       1    C1      19.861128   18.860337   21.194479 C.3        1 MOL1        -0.1685
       2    H1      19.908840   17.986683   20.529841 H          1 MOL1         0.0832
       3    H2      19.449233   19.666649   20.572982 H          1 MOL1         0.0832
       4    C2      21.314585   19.208344   21.630603 C.3        1 MOL1        -0.1685
       5    H3      21.991411   18.485419   21.154603 H          1 MOL1         0.0832
       6    H4      21.609177   20.183889   21.221237 H          1 MOL1         0.0832
       7    C3      21.590936   19.180620   23.155599 C.3        1 MOL1        -0.1685
       8    H5      22.676074   19.248764   23.312311 H          1 MOL1         0.0832
       9    H6      21.314452   18.200775   23.564291 H          1 MOL1         0.0832
      10    C4      20.918640   20.305802   23.990351 C.3        1 MOL1        -0.1761
      11    H7      20.853371   19.967337   25.032427 H          1 MOL1         0.0832
      12    H8      21.591808   21.173270   24.008775 H          1 MOL1         0.0832
      13    C5      19.521735   20.808752   23.550059 C.3        1 MOL1         0.1218
      14    H9      19.127953   21.420211   24.374575 H          1 MOL1         0.0789
      15    C6      18.463047   19.718211   23.253337 C.3        1 MOL1        -0.1761
      16    H10     18.107365   19.310453   24.208305 H          1 MOL1         0.0832
      17    H11     17.591386   20.215947   22.807846 H          1 MOL1         0.0832
      18    C7      18.869631   18.529262   22.339065 C.3        1 MOL1        -0.1685
      19    H12     19.270199   17.711613   22.951080 H          1 MOL1         0.0832
      20    H13     17.952825   18.118071   21.895090 H          1 MOL1         0.0832
      21    O1      19.655842   21.661085   22.423654 O.3        1 MOL1        -0.5509
      22    H14     20.006232   21.074410   21.723674 H          1 MOL1         0.3779
@<TRIPOS>BOND
    1     1     2    1
    2     1     3    1
    3     1     4    1
    4     4     5    1
    5     4     6    1
    6     4     7    1
    7     7     8    1
    8     7     9    1
    9     7    10    1
   10    10    11    1
   11    10    12    1
   12    10    13    1
   13    13    14    1
   14    13    15    1
   15    15    16    1
   16    15    17    1
   17     1    18    1
   18    15    18    1
   19    18    19    1
   20    18    20    1
   21    13    21    1
   22    21    22    1
@<TRIPOS>SUBSTRUCTURE
       1 MOL1            1 RESIDUE      1      MOL     
@<SCITEGIC>MOL_PROPERTY
VConf Rank
SciTegic.value.IntegerValue
704

@<SCITEGIC>MOL_PROPERTY
Conf_Id
SciTegic.value.IntegerValue
98

@<SCITEGIC>MOL_PROPERTY
Delta U+W
SciTegic.value.DoubleValue
0.930

@<SCITEGIC>MOL_PROPERTY
U+W
SciTegic.value.DoubleValue
7.353

@<SCITEGIC>MOL_PROPERTY
Grad RMS
SciTegic.value.DoubleValue
0.000000

@<SCITEGIC>MOL_PROPERTY
U
SciTegic.value.DoubleValue
8.455

@<SCITEGIC>MOL_PROPERTY
W
SciTegic.value.DoubleValue
-1.102

@<SCITEGIC>MOL_PROPERTY
W(PB)
SciTegic.value.DoubleValue
-3.101

@<SCITEGIC>MOL_PROPERTY
W(SA)
SciTegic.value.DoubleValue
2.000

@<SCITEGIC>MOL_PROPERTY
Valence
SciTegic.value.DoubleValue
15.601

@<SCITEGIC>MOL_PROPERTY
Coulomb
SciTegic.value.DoubleValue
-10.573

@<SCITEGIC>MOL_PROPERTY
VdW
SciTegic.value.DoubleValue
3.427

@<SCITEGIC>MOL_PROPERTY
VdW6
SciTegic.value.DoubleValue
-11.360

@<SCITEGIC>MOL_PROPERTY
VdW12
SciTegic.value.DoubleValue
14.787

@<SCITEGIC>MOL_PROPERTY
Bond
SciTegic.value.DoubleValue
0.471

@<SCITEGIC>MOL_PROPERTY
Angle
SciTegic.value.DoubleValue
5.445

@<SCITEGIC>MOL_PROPERTY
Pdih
SciTegic.value.DoubleValue
9.685

@<SCITEGIC>MOL_PROPERTY
Idih
SciTegic.value.DoubleValue
0.000

@<SCITEGIC>MOL_PROPERTY
Tether
SciTegic.value.DoubleValue
0.000

@<TRIPOS>MOLECULE
guest-5_confgen4.mol2 : confsearch ligand conformer 705
          22          22           1
SMALL
USER_CHARGES
 
@<TRIPOS>ATOM
       1    C1      19.759400   19.203496   24.322215 C.3        1 MOL1        -0.1685
       2    H1      20.713137   19.711046   24.516018 H          1 MOL1         0.0832
       3    H2      19.370398   18.938839   25.314862 H          1 MOL1         0.0832
       4    C2      20.013068   17.897280   23.527476 C.3        1 MOL1        -0.1685
       5    H3      20.680818   17.267436   24.131034 H          1 MOL1         0.0832
       6    H4      19.074440   17.333931   23.436708 H          1 MOL1         0.0832
       7    C3      20.647401   18.062952   22.118640 C.3        1 MOL1        -0.1685
       8    H5      19.880906   17.934837   21.343343 H          1 MOL1         0.0832
       9    H6      21.350933   17.234349   21.960228 H          1 MOL1         0.0832
      10    C4      21.396790   19.402090   21.888776 C.3        1 MOL1        -0.1761
      11    H7      22.117199   19.555528   22.701852 H          1 MOL1         0.0832
      12    H8      22.010804   19.302733   20.983512 H          1 MOL1         0.0832
      13    C5      20.500984   20.668247   21.753687 C.3        1 MOL1         0.1218
      14    H9      20.938038   21.460692   22.378251 H          1 MOL1         0.0789
      15    C6      19.016789   20.494267   22.162533 C.3        1 MOL1        -0.1761
      16    H10     18.468411   21.410768   21.908830 H          1 MOL1         0.0832
      17    H11     18.555687   19.708073   21.552719 H          1 MOL1         0.0832
      18    C7      18.771847   20.194550   23.662526 C.3        1 MOL1        -0.1685
      19    H12     18.808487   21.138008   24.224095 H          1 MOL1         0.0832
      20    H13     17.747912   19.814191   23.778954 H          1 MOL1         0.0832
      21    O1      20.522127   21.092382   20.395438 O.3        1 MOL1        -0.5509
      22    H14     19.999680   21.920108   20.349641 H          1 MOL1         0.3779
@<TRIPOS>BOND
    1     1     2    1
    2     1     3    1
    3     1     4    1
    4     4     5    1
    5     4     6    1
    6     4     7    1
    7     7     8    1
    8     7     9    1
    9     7    10    1
   10    10    11    1
   11    10    12    1
   12    10    13    1
   13    13    14    1
   14    13    15    1
   15    15    16    1
   16    15    17    1
   17     1    18    1
   18    15    18    1
   19    18    19    1
   20    18    20    1
   21    13    21    1
   22    21    22    1
@<TRIPOS>SUBSTRUCTURE
       1 MOL1            1 RESIDUE      1      MOL     
@<SCITEGIC>MOL_PROPERTY
VConf Rank
SciTegic.value.IntegerValue
705

@<SCITEGIC>MOL_PROPERTY
Conf_Id
SciTegic.value.IntegerValue
141

@<SCITEGIC>MOL_PROPERTY
Delta U+W
SciTegic.value.DoubleValue
0.000

@<SCITEGIC>MOL_PROPERTY
U+W
SciTegic.value.DoubleValue
6.423

@<SCITEGIC>MOL_PROPERTY
Grad RMS
SciTegic.value.DoubleValue
0.000000

@<SCITEGIC>MOL_PROPERTY
U
SciTegic.value.DoubleValue
8.781

@<SCITEGIC>MOL_PROPERTY
W
SciTegic.value.DoubleValue
-2.358

@<SCITEGIC>MOL_PROPERTY
W(PB)
SciTegic.value.DoubleValue
-4.373

@<SCITEGIC>MOL_PROPERTY
W(SA)
SciTegic.value.DoubleValue
2.015

@<SCITEGIC>MOL_PROPERTY
Valence
SciTegic.value.DoubleValue
13.328

@<SCITEGIC>MOL_PROPERTY
Coulomb
SciTegic.value.DoubleValue
-8.387

@<SCITEGIC>MOL_PROPERTY
VdW
SciTegic.value.DoubleValue
3.840

@<SCITEGIC>MOL_PROPERTY
VdW6
SciTegic.value.DoubleValue
-9.744

@<SCITEGIC>MOL_PROPERTY
VdW12
SciTegic.value.DoubleValue
13.584

@<SCITEGIC>MOL_PROPERTY
Bond
SciTegic.value.DoubleValue
0.436

@<SCITEGIC>MOL_PROPERTY
Angle
SciTegic.value.DoubleValue
3.478

@<SCITEGIC>MOL_PROPERTY
Pdih
SciTegic.value.DoubleValue
9.415

@<SCITEGIC>MOL_PROPERTY
Idih
SciTegic.value.DoubleValue
0.000

@<SCITEGIC>MOL_PROPERTY
Tether
SciTegic.value.DoubleValue
0.000

@<TRIPOS>MOLECULE
guest-5_confgen4.mol2 : confsearch ligand conformer 706
          22          22           1
SMALL
USER_CHARGES
 
@<TRIPOS>ATOM
       1    C1      20.881988   21.100060   22.472454 C.3        1 MOL1        -0.1685
       2    H1      21.102319   21.074353   23.548280 H          1 MOL1         0.0832
       3    H2      21.412131   21.976246   22.074773 H          1 MOL1         0.0832
       4    C2      19.369468   21.312816   22.222109 C.3        1 MOL1        -0.1685
       5    H3      19.102362   22.330656   22.537565 H          1 MOL1         0.0832
       6    H4      19.169921   21.273008   21.142537 H          1 MOL1         0.0832
       7    C3      18.434490   20.320966   22.951752 C.3        1 MOL1        -0.1685
       8    H5      17.402050   20.532245   22.641499 H          1 MOL1         0.0832
       9    H6      18.468250   20.515438   24.032493 H          1 MOL1         0.0832
      10    C4      18.733602   18.825023   22.687431 C.3        1 MOL1        -0.1761
      11    H7      17.879944   18.244687   23.061546 H          1 MOL1         0.0832
      12    H8      18.789368   18.625863   21.609367 H          1 MOL1         0.0832
      13    C5      20.018816   18.339632   23.394714 C.3        1 MOL1         0.1218
      14    H9      20.124609   18.896725   24.336680 H          1 MOL1         0.0789
      15    C6      21.314081   18.527202   22.572278 C.3        1 MOL1        -0.1761
      16    H10     22.160677   18.459561   23.267656 H          1 MOL1         0.0832
      17    H11     21.428117   17.684913   21.876825 H          1 MOL1         0.0832
      18    C7      21.438308   19.842903   21.763858 C.3        1 MOL1        -0.1685
      19    H12     22.501164   20.002487   21.536494 H          1 MOL1         0.0832
      20    H13     20.944105   19.723852   20.790052 H          1 MOL1         0.0832
      21    O1      19.882868   16.955592   23.693326 O.3        1 MOL1        -0.5509
      22    H14     19.100420   16.868282   24.277082 H          1 MOL1         0.3779
@<TRIPOS>BOND
    1     1     2    1
    2     1     3    1
    3     1     4    1
    4     4     5    1
    5     4     6    1
    6     4     7    1
    7     7     8    1
    8     7     9    1
    9     7    10    1
   10    10    11    1
   11    10    12    1
   12    10    13    1
   13    13    14    1
   14    13    15    1
   15    15    16    1
   16    15    17    1
   17     1    18    1
   18    15    18    1
   19    18    19    1
   20    18    20    1
   21    13    21    1
   22    21    22    1
@<TRIPOS>SUBSTRUCTURE
       1 MOL1            1 RESIDUE      1      MOL     
@<SCITEGIC>MOL_PROPERTY
VConf Rank
SciTegic.value.IntegerValue
706

@<SCITEGIC>MOL_PROPERTY
Conf_Id
SciTegic.value.IntegerValue
144

@<SCITEGIC>MOL_PROPERTY
Delta U+W
SciTegic.value.DoubleValue
-3.291

@<SCITEGIC>MOL_PROPERTY
U+W
SciTegic.value.DoubleValue
3.132

@<SCITEGIC>MOL_PROPERTY
Grad RMS
SciTegic.value.DoubleValue
0.000000

@<SCITEGIC>MOL_PROPERTY
U
SciTegic.value.DoubleValue
5.411

@<SCITEGIC>MOL_PROPERTY
W
SciTegic.value.DoubleValue
-2.279

@<SCITEGIC>MOL_PROPERTY
W(PB)
SciTegic.value.DoubleValue
-4.300

@<SCITEGIC>MOL_PROPERTY
W(SA)
SciTegic.value.DoubleValue
2.021

@<SCITEGIC>MOL_PROPERTY
Valence
SciTegic.value.DoubleValue
11.909

@<SCITEGIC>MOL_PROPERTY
Coulomb
SciTegic.value.DoubleValue
-8.733

@<SCITEGIC>MOL_PROPERTY
VdW
SciTegic.value.DoubleValue
2.236

@<SCITEGIC>MOL_PROPERTY
VdW6
SciTegic.value.DoubleValue
-8.936

@<SCITEGIC>MOL_PROPERTY
VdW12
SciTegic.value.DoubleValue
11.172

@<SCITEGIC>MOL_PROPERTY
Bond
SciTegic.value.DoubleValue
0.223

@<SCITEGIC>MOL_PROPERTY
Angle
SciTegic.value.DoubleValue
2.457

@<SCITEGIC>MOL_PROPERTY
Pdih
SciTegic.value.DoubleValue
9.228

@<SCITEGIC>MOL_PROPERTY
Idih
SciTegic.value.DoubleValue
0.000

@<SCITEGIC>MOL_PROPERTY
Tether
SciTegic.value.DoubleValue
0.000

@<TRIPOS>MOLECULE
guest-5_confgen4.mol2 : confsearch ligand conformer 707
          22          22           1
SMALL
USER_CHARGES
 
@<TRIPOS>ATOM
       1    C1      21.369208   19.779496   21.700112 C.3        1 MOL1        -0.1685
       2    H1      22.348316   19.662836   21.215727 H          1 MOL1         0.0832
       3    H2      20.956590   20.726767   21.327143 H          1 MOL1         0.0832
       4    C2      21.596107   19.841136   23.228769 C.3        1 MOL1        -0.1685
       5    H3      21.689647   18.821175   23.625889 H          1 MOL1         0.0832
       6    H4      22.564329   20.321713   23.425214 H          1 MOL1         0.0832
       7    C3      20.512537   20.610224   24.022683 C.3        1 MOL1        -0.1685
       8    H5      20.740992   21.684332   23.990783 H          1 MOL1         0.0832
       9    H6      20.591675   20.319866   25.079304 H          1 MOL1         0.0832
      10    C4      19.049491   20.414429   23.554389 C.3        1 MOL1        -0.1761
      11    H7      18.389571   20.726478   24.375121 H          1 MOL1         0.0832
      12    H8      18.840801   21.103906   22.726159 H          1 MOL1         0.0832
      13    C5      18.690616   18.974660   23.123265 C.3        1 MOL1         0.1218
      14    H9      19.246992   18.255706   23.741343 H          1 MOL1         0.0789
      15    C6      18.986823   18.712310   21.629139 C.3        1 MOL1        -0.1761
      16    H10     18.485331   17.782430   21.329206 H          1 MOL1         0.0832
      17    H11     18.537890   19.508640   21.021352 H          1 MOL1         0.0832
      18    C7      20.486090   18.583845   21.269402 C.3        1 MOL1        -0.1685
      19    H12     20.887008   17.658523   21.705256 H          1 MOL1         0.0832
      20    H13     20.568460   18.461856   20.180769 H          1 MOL1         0.0832
      21    O1      17.298435   18.779420   23.332846 O.3        1 MOL1        -0.5509
      22    H14     16.839165   19.435879   22.769559 H          1 MOL1         0.3779
@<TRIPOS>BOND
    1     1     2    1
    2     1     3    1
    3     1     4    1
    4     4     5    1
    5     4     6    1
    6     4     7    1
    7     7     8    1
    8     7     9    1
    9     7    10    1
   10    10    11    1
   11    10    12    1
   12    10    13    1
   13    13    14    1
   14    13    15    1
   15    15    16    1
   16    15    17    1
   17     1    18    1
   18    15    18    1
   19    18    19    1
   20    18    20    1
   21    13    21    1
   22    21    22    1
@<TRIPOS>SUBSTRUCTURE
       1 MOL1            1 RESIDUE      1      MOL     
@<SCITEGIC>MOL_PROPERTY
VConf Rank
SciTegic.value.IntegerValue
707

@<SCITEGIC>MOL_PROPERTY
Conf_Id
SciTegic.value.IntegerValue
76

@<SCITEGIC>MOL_PROPERTY
Delta U+W
SciTegic.value.DoubleValue
-3.175

@<SCITEGIC>MOL_PROPERTY
U+W
SciTegic.value.DoubleValue
3.248

@<SCITEGIC>MOL_PROPERTY
Grad RMS
SciTegic.value.DoubleValue
0.000000

@<SCITEGIC>MOL_PROPERTY
U
SciTegic.value.DoubleValue
5.336

@<SCITEGIC>MOL_PROPERTY
W
SciTegic.value.DoubleValue
-2.088

@<SCITEGIC>MOL_PROPERTY
W(PB)
SciTegic.value.DoubleValue
-4.098

@<SCITEGIC>MOL_PROPERTY
W(SA)
SciTegic.value.DoubleValue
2.010

@<SCITEGIC>MOL_PROPERTY
Valence
SciTegic.value.DoubleValue
12.390

@<SCITEGIC>MOL_PROPERTY
Coulomb
SciTegic.value.DoubleValue
-9.270

@<SCITEGIC>MOL_PROPERTY
VdW
SciTegic.value.DoubleValue
2.216

@<SCITEGIC>MOL_PROPERTY
VdW6
SciTegic.value.DoubleValue
-8.967

@<SCITEGIC>MOL_PROPERTY
VdW12
SciTegic.value.DoubleValue
11.183

@<SCITEGIC>MOL_PROPERTY
Bond
SciTegic.value.DoubleValue
0.218

@<SCITEGIC>MOL_PROPERTY
Angle
SciTegic.value.DoubleValue
2.426

@<SCITEGIC>MOL_PROPERTY
Pdih
SciTegic.value.DoubleValue
9.745

@<SCITEGIC>MOL_PROPERTY
Idih
SciTegic.value.DoubleValue
0.000

@<SCITEGIC>MOL_PROPERTY
Tether
SciTegic.value.DoubleValue
0.000

@<TRIPOS>MOLECULE
guest-5_confgen4.mol2 : confsearch ligand conformer 708
          22          22           1
SMALL
USER_CHARGES
 
@<TRIPOS>ATOM
       1    C1      20.312644   19.161608   24.504584 C.3        1 MOL1        -0.1685
       2    H1      19.662597   19.452445   25.341025 H          1 MOL1         0.0832
       3    H2      21.091214   18.521072   24.940882 H          1 MOL1         0.0832
       4    C2      20.974615   20.440745   23.938653 C.3        1 MOL1        -0.1685
       5    H3      20.259647   21.273461   23.982056 H          1 MOL1         0.0832
       6    H4      21.795987   20.723717   24.611006 H          1 MOL1         0.0832
       7    C3      21.525795   20.310410   22.499640 C.3        1 MOL1        -0.1685
       8    H5      21.963714   19.316553   22.334380 H          1 MOL1         0.0832
       9    H6      22.348252   21.028930   22.383088 H          1 MOL1         0.0832
      10    C4      20.462514   20.630863   21.418519 C.3        1 MOL1        -0.1761
      11    H7      19.992233   21.595181   21.649687 H          1 MOL1         0.0832
      12    H8      20.972882   20.774810   20.457157 H          1 MOL1         0.0832
      13    C5      19.354288   19.572674   21.215616 C.3        1 MOL1         0.1218
      14    H9      18.596999   20.028181   20.561303 H          1 MOL1         0.0789
      15    C6      18.628362   19.122274   22.508155 C.3        1 MOL1        -0.1761
      16    H10     18.194679   19.994336   23.014421 H          1 MOL1         0.0832
      17    H11     17.775485   18.499487   22.208947 H          1 MOL1         0.0832
      18    C7      19.497294   18.309492   23.502922 C.3        1 MOL1        -0.1685
      19    H12     18.842975   17.643498   24.081490 H          1 MOL1         0.0832
      20    H13     20.176381   17.644269   22.953595 H          1 MOL1         0.0832
      21    O1      19.900819   18.443212   20.542086 O.3        1 MOL1        -0.5509
      22    H14     19.182845   17.780591   20.481015 H          1 MOL1         0.3779
@<TRIPOS>BOND
    1     1     2    1
    2     1     3    1
    3     1     4    1
    4     4     5    1
    5     4     6    1
    6     4     7    1
    7     7     8    1
    8     7     9    1
    9     7    10    1
   10    10    11    1
   11    10    12    1
   12    10    13    1
   13    13    14    1
   14    13    15    1
   15    15    16    1
   16    15    17    1
   17     1    18    1
   18    15    18    1
   19    18    19    1
   20    18    20    1
   21    13    21    1
   22    21    22    1
@<TRIPOS>SUBSTRUCTURE
       1 MOL1            1 RESIDUE      1      MOL     
@<SCITEGIC>MOL_PROPERTY
VConf Rank
SciTegic.value.IntegerValue
708

@<SCITEGIC>MOL_PROPERTY
Conf_Id
SciTegic.value.IntegerValue
95

@<SCITEGIC>MOL_PROPERTY
Delta U+W
SciTegic.value.DoubleValue
-2.289

@<SCITEGIC>MOL_PROPERTY
U+W
SciTegic.value.DoubleValue
4.134

@<SCITEGIC>MOL_PROPERTY
Grad RMS
SciTegic.value.DoubleValue
0.000000

@<SCITEGIC>MOL_PROPERTY
U
SciTegic.value.DoubleValue
6.373

@<SCITEGIC>MOL_PROPERTY
W
SciTegic.value.DoubleValue
-2.240

@<SCITEGIC>MOL_PROPERTY
W(PB)
SciTegic.value.DoubleValue
-4.254

@<SCITEGIC>MOL_PROPERTY
W(SA)
SciTegic.value.DoubleValue
2.015

@<SCITEGIC>MOL_PROPERTY
Valence
SciTegic.value.DoubleValue
12.093

@<SCITEGIC>MOL_PROPERTY
Coulomb
SciTegic.value.DoubleValue
-8.058

@<SCITEGIC>MOL_PROPERTY
VdW
SciTegic.value.DoubleValue
2.339

@<SCITEGIC>MOL_PROPERTY
VdW6
SciTegic.value.DoubleValue
-9.683

@<SCITEGIC>MOL_PROPERTY
VdW12
SciTegic.value.DoubleValue
12.022

@<SCITEGIC>MOL_PROPERTY
Bond
SciTegic.value.DoubleValue
0.268

@<SCITEGIC>MOL_PROPERTY
Angle
SciTegic.value.DoubleValue
3.005

@<SCITEGIC>MOL_PROPERTY
Pdih
SciTegic.value.DoubleValue
8.820

@<SCITEGIC>MOL_PROPERTY
Idih
SciTegic.value.DoubleValue
0.000

@<SCITEGIC>MOL_PROPERTY
Tether
SciTegic.value.DoubleValue
0.000

@<TRIPOS>MOLECULE
guest-5_confgen4.mol2 : confsearch ligand conformer 709
          22          22           1
SMALL
USER_CHARGES
 
@<TRIPOS>ATOM
       1    C1      18.362280   20.390684   22.215389 C.3        1 MOL1        -0.1685
       2    H1      18.129702   21.003090   21.333561 H          1 MOL1         0.0832
       3    H2      17.411178   20.265983   22.750781 H          1 MOL1         0.0832
       4    C2      19.341390   21.185494   23.112021 C.3        1 MOL1        -0.1685
       5    H3      20.032998   21.758833   22.480007 H          1 MOL1         0.0832
       6    H4      18.760946   21.935298   23.666707 H          1 MOL1         0.0832
       7    C3      20.149590   20.332067   24.117004 C.3        1 MOL1        -0.1685
       8    H5      19.535392   19.517295   24.524102 H          1 MOL1         0.0832
       9    H6      20.413546   20.970781   24.970700 H          1 MOL1         0.0832
      10    C4      21.466842   19.784299   23.511937 C.3        1 MOL1        -0.1761
      11    H7      22.014943   20.609392   23.038964 H          1 MOL1         0.0832
      12    H8      22.111533   19.438002   24.330127 H          1 MOL1         0.0832
      13    C5      21.321022   18.635955   22.487351 C.3        1 MOL1         0.1218
      14    H9      22.311271   18.488319   22.032696 H          1 MOL1         0.0789
      15    C6      20.326481   18.908410   21.331067 C.3        1 MOL1        -0.1761
      16    H10     20.619241   19.818281   20.791703 H          1 MOL1         0.0832
      17    H11     20.432544   18.086188   20.611671 H          1 MOL1         0.0832
      18    C7      18.835492   18.992986   21.749682 C.3        1 MOL1        -0.1685
      19    H12     18.212262   18.692805   20.896633 H          1 MOL1         0.0832
      20    H13     18.625997   18.255085   22.535324 H          1 MOL1         0.0832
      21    O1      20.962728   17.437626   23.168913 O.3        1 MOL1        -0.5509
      22    H14     21.608957   17.322943   23.895151 H          1 MOL1         0.3779
@<TRIPOS>BOND
    1     1     2    1
    2     1     3    1
    3     1     4    1
    4     4     5    1
    5     4     6    1
    6     4     7    1
    7     7     8    1
    8     7     9    1
    9     7    10    1
   10    10    11    1
   11    10    12    1
   12    10    13    1
   13    13    14    1
   14    13    15    1
   15    15    16    1
   16    15    17    1
   17     1    18    1
   18    15    18    1
   19    18    19    1
   20    18    20    1
   21    13    21    1
   22    21    22    1
@<TRIPOS>SUBSTRUCTURE
       1 MOL1            1 RESIDUE      1      MOL     
@<SCITEGIC>MOL_PROPERTY
VConf Rank
SciTegic.value.IntegerValue
709

@<SCITEGIC>MOL_PROPERTY
Conf_Id
SciTegic.value.IntegerValue
41

@<SCITEGIC>MOL_PROPERTY
Delta U+W
SciTegic.value.DoubleValue
-2.114

@<SCITEGIC>MOL_PROPERTY
U+W
SciTegic.value.DoubleValue
4.310

@<SCITEGIC>MOL_PROPERTY
Grad RMS
SciTegic.value.DoubleValue
0.000000

@<SCITEGIC>MOL_PROPERTY
U
SciTegic.value.DoubleValue
6.598

@<SCITEGIC>MOL_PROPERTY
W
SciTegic.value.DoubleValue
-2.289

@<SCITEGIC>MOL_PROPERTY
W(PB)
SciTegic.value.DoubleValue
-4.294

@<SCITEGIC>MOL_PROPERTY
W(SA)
SciTegic.value.DoubleValue
2.005

@<SCITEGIC>MOL_PROPERTY
Valence
SciTegic.value.DoubleValue
12.082

@<SCITEGIC>MOL_PROPERTY
Coulomb
SciTegic.value.DoubleValue
-7.801

@<SCITEGIC>MOL_PROPERTY
VdW
SciTegic.value.DoubleValue
2.317

@<SCITEGIC>MOL_PROPERTY
VdW6
SciTegic.value.DoubleValue
-9.658

@<SCITEGIC>MOL_PROPERTY
VdW12
SciTegic.value.DoubleValue
11.975

@<SCITEGIC>MOL_PROPERTY
Bond
SciTegic.value.DoubleValue
0.267

@<SCITEGIC>MOL_PROPERTY
Angle
SciTegic.value.DoubleValue
3.051

@<SCITEGIC>MOL_PROPERTY
Pdih
SciTegic.value.DoubleValue
8.764

@<SCITEGIC>MOL_PROPERTY
Idih
SciTegic.value.DoubleValue
0.000

@<SCITEGIC>MOL_PROPERTY
Tether
SciTegic.value.DoubleValue
0.000

@<TRIPOS>MOLECULE
guest-5_confgen4.mol2 : confsearch ligand conformer 710
          22          22           1
SMALL
USER_CHARGES
 
@<TRIPOS>ATOM
       1    C1      20.850990   20.655187   21.744263 C.3        1 MOL1        -0.1685
       2    H1      21.318410   21.210145   20.919588 H          1 MOL1         0.0832
       3    H2      20.605700   21.398274   22.515516 H          1 MOL1         0.0832
       4    C2      21.884266   19.636704   22.275693 C.3        1 MOL1        -0.1685
       5    H3      22.068589   18.868118   21.512881 H          1 MOL1         0.0832
       6    H4      22.842937   20.152884   22.420843 H          1 MOL1         0.0832
       7    C3      21.494049   18.958167   23.607061 C.3        1 MOL1        -0.1685
       8    H5      21.517279   19.700402   24.416034 H          1 MOL1         0.0832
       9    H6      22.275209   18.227471   23.856056 H          1 MOL1         0.0832
      10    C4      20.125049   18.225405   23.597805 C.3        1 MOL1        -0.1761
      11    H7      20.070970   17.538973   22.743320 H          1 MOL1         0.0832
      12    H8      20.082595   17.589811   24.491562 H          1 MOL1         0.0832
      13    C5      18.868686   19.133660   23.623425 C.3        1 MOL1         0.1218
      14    H9      18.026353   18.498005   23.932769 H          1 MOL1         0.0789
      15    C6      18.459276   19.760994   22.265494 C.3        1 MOL1        -0.1761
      16    H10     17.693833   19.117734   21.812311 H          1 MOL1         0.0832
      17    H11     17.956912   20.719444   22.451173 H          1 MOL1         0.0832
      18    C7      19.569267   19.980340   21.207805 C.3        1 MOL1        -0.1685
      19    H12     19.824207   19.024341   20.730851 H          1 MOL1         0.0832
      20    H13     19.151432   20.606231   20.407586 H          1 MOL1         0.0832
      21    O1      19.015644   20.160090   24.601057 O.3        1 MOL1        -0.5509
      22    H14     18.182235   20.673253   24.599716 H          1 MOL1         0.3779
@<TRIPOS>BOND
    1     1     2    1
    2     1     3    1
    3     1     4    1
    4     4     5    1
    5     4     6    1
    6     4     7    1
    7     7     8    1
    8     7     9    1
    9     7    10    1
   10    10    11    1
   11    10    12    1
   12    10    13    1
   13    13    14    1
   14    13    15    1
   15    15    16    1
   16    15    17    1
   17     1    18    1
   18    15    18    1
   19    18    19    1
   20    18    20    1
   21    13    21    1
   22    21    22    1
@<TRIPOS>SUBSTRUCTURE
       1 MOL1            1 RESIDUE      1      MOL     
@<SCITEGIC>MOL_PROPERTY
VConf Rank
SciTegic.value.IntegerValue
710

@<SCITEGIC>MOL_PROPERTY
Conf_Id
SciTegic.value.IntegerValue
104

@<SCITEGIC>MOL_PROPERTY
Delta U+W
SciTegic.value.DoubleValue
-1.172

@<SCITEGIC>MOL_PROPERTY
U+W
SciTegic.value.DoubleValue
5.252

@<SCITEGIC>MOL_PROPERTY
Grad RMS
SciTegic.value.DoubleValue
0.000000

@<SCITEGIC>MOL_PROPERTY
U
SciTegic.value.DoubleValue
7.482

@<SCITEGIC>MOL_PROPERTY
W
SciTegic.value.DoubleValue
-2.230

@<SCITEGIC>MOL_PROPERTY
W(PB)
SciTegic.value.DoubleValue
-4.220

@<SCITEGIC>MOL_PROPERTY
W(SA)
SciTegic.value.DoubleValue
1.990

@<SCITEGIC>MOL_PROPERTY
Valence
SciTegic.value.DoubleValue
12.309

@<SCITEGIC>MOL_PROPERTY
Coulomb
SciTegic.value.DoubleValue
-7.084

@<SCITEGIC>MOL_PROPERTY
VdW
SciTegic.value.DoubleValue
2.258

@<SCITEGIC>MOL_PROPERTY
VdW6
SciTegic.value.DoubleValue
-9.770

@<SCITEGIC>MOL_PROPERTY
VdW12
SciTegic.value.DoubleValue
12.028

@<SCITEGIC>MOL_PROPERTY
Bond
SciTegic.value.DoubleValue
0.284

@<SCITEGIC>MOL_PROPERTY
Angle
SciTegic.value.DoubleValue
3.491

@<SCITEGIC>MOL_PROPERTY
Pdih
SciTegic.value.DoubleValue
8.535

@<SCITEGIC>MOL_PROPERTY
Idih
SciTegic.value.DoubleValue
0.000

@<SCITEGIC>MOL_PROPERTY
Tether
SciTegic.value.DoubleValue
0.000

@<TRIPOS>MOLECULE
guest-5_confgen4.mol2 : confsearch ligand conformer 711
          22          22           1
SMALL
USER_CHARGES
 
@<TRIPOS>ATOM
       1    C1      19.606499   18.565663   21.463796 C.3        1 MOL1        -0.1685
       2    H1      19.912717   17.669826   22.020743 H          1 MOL1         0.0832
       3    H2      19.234949   18.206409   20.494350 H          1 MOL1         0.0832
       4    C2      20.816844   19.488475   21.193670 C.3        1 MOL1        -0.1685
       5    H3      21.381535   19.085279   20.341728 H          1 MOL1         0.0832
       6    H4      20.457868   20.469970   20.857304 H          1 MOL1         0.0832
       7    C3      21.805049   19.662887   22.374646 C.3        1 MOL1        -0.1685
       8    H5      22.324248   20.623798   22.254659 H          1 MOL1         0.0832
       9    H6      22.587570   18.896575   22.288884 H          1 MOL1         0.0832
      10    C4      21.220380   19.575562   23.810522 C.3        1 MOL1        -0.1761
      11    H7      21.072233   18.520314   24.074072 H          1 MOL1         0.0832
      12    H8      21.982995   19.942317   24.509744 H          1 MOL1         0.0832
      13    C5      19.907644   20.344709   24.084597 C.3        1 MOL1         0.1218
      14    H9      19.848367   20.514220   25.169324 H          1 MOL1         0.0789
      15    C6      18.647833   19.542118   23.688376 C.3        1 MOL1        -0.1761
      16    H10     18.666494   18.577425   24.211904 H          1 MOL1         0.0832
      17    H11     17.768352   20.072088   24.076821 H          1 MOL1         0.0832
      18    C7      18.437544   19.287862   22.175126 C.3        1 MOL1        -0.1685
      19    H12     17.532678   18.675840   22.059549 H          1 MOL1         0.0832
      20    H13     18.219530   20.235847   21.664957 H          1 MOL1         0.0832
      21    O1      19.917118   21.599408   23.421414 O.3        1 MOL1        -0.5509
      22    H14     20.055263   21.370930   22.480670 H          1 MOL1         0.3779
@<TRIPOS>BOND
    1     1     2    1
    2     1     3    1
    3     1     4    1
    4     4     5    1
    5     4     6    1
    6     4     7    1
    7     7     8    1
    8     7     9    1
    9     7    10    1
   10    10    11    1
   11    10    12    1
   12    10    13    1
   13    13    14    1
   14    13    15    1
   15    15    16    1
   16    15    17    1
   17     1    18    1
   18    15    18    1
   19    18    19    1
   20    18    20    1
   21    13    21    1
   22    21    22    1
@<TRIPOS>SUBSTRUCTURE
       1 MOL1            1 RESIDUE      1      MOL     
@<SCITEGIC>MOL_PROPERTY
VConf Rank
SciTegic.value.IntegerValue
711

@<SCITEGIC>MOL_PROPERTY
Conf_Id
SciTegic.value.IntegerValue
99

@<SCITEGIC>MOL_PROPERTY
Delta U+W
SciTegic.value.DoubleValue
-3.852

@<SCITEGIC>MOL_PROPERTY
U+W
SciTegic.value.DoubleValue
2.572

@<SCITEGIC>MOL_PROPERTY
Grad RMS
SciTegic.value.DoubleValue
0.000000

@<SCITEGIC>MOL_PROPERTY
U
SciTegic.value.DoubleValue
3.922

@<SCITEGIC>MOL_PROPERTY
W
SciTegic.value.DoubleValue
-1.350

@<SCITEGIC>MOL_PROPERTY
W(PB)
SciTegic.value.DoubleValue
-3.345

@<SCITEGIC>MOL_PROPERTY
W(SA)
SciTegic.value.DoubleValue
1.995

@<SCITEGIC>MOL_PROPERTY
Valence
SciTegic.value.DoubleValue
12.571

@<SCITEGIC>MOL_PROPERTY
Coulomb
SciTegic.value.DoubleValue
-10.581

@<SCITEGIC>MOL_PROPERTY
VdW
SciTegic.value.DoubleValue
1.932

@<SCITEGIC>MOL_PROPERTY
VdW6
SciTegic.value.DoubleValue
-10.483

@<SCITEGIC>MOL_PROPERTY
VdW12
SciTegic.value.DoubleValue
12.415

@<SCITEGIC>MOL_PROPERTY
Bond
SciTegic.value.DoubleValue
0.268

@<SCITEGIC>MOL_PROPERTY
Angle
SciTegic.value.DoubleValue
3.728

@<SCITEGIC>MOL_PROPERTY
Pdih
SciTegic.value.DoubleValue
8.575

@<SCITEGIC>MOL_PROPERTY
Idih
SciTegic.value.DoubleValue
0.000

@<SCITEGIC>MOL_PROPERTY
Tether
SciTegic.value.DoubleValue
0.000

@<TRIPOS>MOLECULE
guest-5_confgen4.mol2 : confsearch ligand conformer 712
          22          22           1
SMALL
USER_CHARGES
 
@<TRIPOS>ATOM
       1    C1      18.962702   20.195453   21.591013 C.3        1 MOL1        -0.1685
       2    H1      18.607803   20.373952   20.566574 H          1 MOL1         0.0832
       3    H2      18.181788   20.616213   22.238461 H          1 MOL1         0.0832
       4    C2      20.294700   20.979411   21.778205 C.3        1 MOL1        -0.1685
       5    H3      20.516244   21.497363   20.834841 H          1 MOL1         0.0832
       6    H4      20.161326   21.781164   22.516756 H          1 MOL1         0.0832
       7    C3      21.535747   20.129696   22.153086 C.3        1 MOL1        -0.1685
       8    H5      22.429007   20.762728   22.063179 H          1 MOL1         0.0832
       9    H6      21.682177   19.338853   21.406965 H          1 MOL1         0.0832
      10    C4      21.532812   19.511662   23.578868 C.3        1 MOL1        -0.1761
      11    H7      22.218353   18.654479   23.582490 H          1 MOL1         0.0832
      12    H8      21.974341   20.239099   24.273046 H          1 MOL1         0.0832
      13    C5      20.178384   19.058465   24.177447 C.3        1 MOL1         0.1218
      14    H9      20.408371   18.455251   25.067399 H          1 MOL1         0.0789
      15    C6      19.282269   18.187426   23.262892 C.3        1 MOL1        -0.1761
      16    H10     19.701670   17.173662   23.229349 H          1 MOL1         0.0832
      17    H11     18.307798   18.081923   23.758143 H          1 MOL1         0.0832
      18    C7      19.041848   18.661949   21.802815 C.3        1 MOL1        -0.1685
      19    H12     19.808860   18.236211   21.144022 H          1 MOL1         0.0832
      20    H13     18.100469   18.215171   21.455079 H          1 MOL1         0.0832
      21    O1      19.448942   20.193077   24.617689 O.3        1 MOL1        -0.5509
      22    H14     19.270258   20.692692   23.795867 H          1 MOL1         0.3779
@<TRIPOS>BOND
    1     1     2    1
    2     1     3    1
    3     1     4    1
    4     4     5    1
    5     4     6    1
    6     4     7    1
    7     7     8    1
    8     7     9    1
    9     7    10    1
   10    10    11    1
   11    10    12    1
   12    10    13    1
   13    13    14    1
   14    13    15    1
   15    15    16    1
   16    15    17    1
   17     1    18    1
   18    15    18    1
   19    18    19    1
   20    18    20    1
   21    13    21    1
   22    21    22    1
@<TRIPOS>SUBSTRUCTURE
       1 MOL1            1 RESIDUE      1      MOL     
@<SCITEGIC>MOL_PROPERTY
VConf Rank
SciTegic.value.IntegerValue
712

@<SCITEGIC>MOL_PROPERTY
Conf_Id
SciTegic.value.IntegerValue
98

@<SCITEGIC>MOL_PROPERTY
Delta U+W
SciTegic.value.DoubleValue
0.930

@<SCITEGIC>MOL_PROPERTY
U+W
SciTegic.value.DoubleValue
7.353

@<SCITEGIC>MOL_PROPERTY
Grad RMS
SciTegic.value.DoubleValue
0.000000

@<SCITEGIC>MOL_PROPERTY
U
SciTegic.value.DoubleValue
8.455

@<SCITEGIC>MOL_PROPERTY
W
SciTegic.value.DoubleValue
-1.102

@<SCITEGIC>MOL_PROPERTY
W(PB)
SciTegic.value.DoubleValue
-3.101

@<SCITEGIC>MOL_PROPERTY
W(SA)
SciTegic.value.DoubleValue
2.000

@<SCITEGIC>MOL_PROPERTY
Valence
SciTegic.value.DoubleValue
15.601

@<SCITEGIC>MOL_PROPERTY
Coulomb
SciTegic.value.DoubleValue
-10.573

@<SCITEGIC>MOL_PROPERTY
VdW
SciTegic.value.DoubleValue
3.427

@<SCITEGIC>MOL_PROPERTY
VdW6
SciTegic.value.DoubleValue
-11.360

@<SCITEGIC>MOL_PROPERTY
VdW12
SciTegic.value.DoubleValue
14.787

@<SCITEGIC>MOL_PROPERTY
Bond
SciTegic.value.DoubleValue
0.471

@<SCITEGIC>MOL_PROPERTY
Angle
SciTegic.value.DoubleValue
5.445

@<SCITEGIC>MOL_PROPERTY
Pdih
SciTegic.value.DoubleValue
9.685

@<SCITEGIC>MOL_PROPERTY
Idih
SciTegic.value.DoubleValue
0.000

@<SCITEGIC>MOL_PROPERTY
Tether
SciTegic.value.DoubleValue
0.000

@<TRIPOS>MOLECULE
guest-5_confgen4.mol2 : confsearch ligand conformer 713
          22          22           1
SMALL
USER_CHARGES
 
@<TRIPOS>ATOM
       1    C1      20.478091   18.014270   23.311695 C.3        1 MOL1        -0.1685
       2    H1      21.382288   18.510325   23.687380 H          1 MOL1         0.0832
       3    H2      20.543575   16.982599   23.683286 H          1 MOL1         0.0832
       4    C2      20.502989   17.983030   21.762320 C.3        1 MOL1        -0.1685
       5    H3      21.407878   17.440002   21.457079 H          1 MOL1         0.0832
       6    H4      19.658632   17.385306   21.392983 H          1 MOL1         0.0832
       7    C3      20.503049   19.362854   21.047666 C.3        1 MOL1        -0.1685
       8    H5      19.504201   19.579249   20.647054 H          1 MOL1         0.0832
       9    H6      21.152342   19.291111   20.164543 H          1 MOL1         0.0832
      10    C4      20.979874   20.554469   21.919676 C.3        1 MOL1        -0.1761
      11    H7      21.949647   20.306445   22.368732 H          1 MOL1         0.0832
      12    H8      21.185839   21.405974   21.257178 H          1 MOL1         0.0832
      13    C5      20.000121   21.012643   23.039512 C.3        1 MOL1         0.1218
      14    H9      20.581152   21.149286   23.962982 H          1 MOL1         0.0789
      15    C6      18.824885   20.050816   23.346055 C.3        1 MOL1        -0.1761
      16    H10     18.144497   20.536378   24.057643 H          1 MOL1         0.0832
      17    H11     18.227290   19.897531   22.439428 H          1 MOL1         0.0832
      18    C7      19.228041   18.676780   23.937070 C.3        1 MOL1        -0.1685
      19    H12     19.405630   18.791838   25.015049 H          1 MOL1         0.0832
      20    H13     18.373198   17.993247   23.843812 H          1 MOL1         0.0832
      21    O1      19.438936   22.264931   22.662652 O.3        1 MOL1        -0.5509
      22    H14     18.873098   22.556722   23.407543 H          1 MOL1         0.3779
@<TRIPOS>BOND
    1     1     2    1
    2     1     3    1
    3     1     4    1
    4     4     5    1
    5     4     6    1
    6     4     7    1
    7     7     8    1
    8     7     9    1
    9     7    10    1
   10    10    11    1
   11    10    12    1
   12    10    13    1
   13    13    14    1
   14    13    15    1
   15    15    16    1
   16    15    17    1
   17     1    18    1
   18    15    18    1
   19    18    19    1
   20    18    20    1
   21    13    21    1
   22    21    22    1
@<TRIPOS>SUBSTRUCTURE
       1 MOL1            1 RESIDUE      1      MOL     
@<SCITEGIC>MOL_PROPERTY
VConf Rank
SciTegic.value.IntegerValue
713

@<SCITEGIC>MOL_PROPERTY
Conf_Id
SciTegic.value.IntegerValue
141

@<SCITEGIC>MOL_PROPERTY
Delta U+W
SciTegic.value.DoubleValue
0.000

@<SCITEGIC>MOL_PROPERTY
U+W
SciTegic.value.DoubleValue
6.423

@<SCITEGIC>MOL_PROPERTY
Grad RMS
SciTegic.value.DoubleValue
0.000000

@<SCITEGIC>MOL_PROPERTY
U
SciTegic.value.DoubleValue
8.781

@<SCITEGIC>MOL_PROPERTY
W
SciTegic.value.DoubleValue
-2.358

@<SCITEGIC>MOL_PROPERTY
W(PB)
SciTegic.value.DoubleValue
-4.373

@<SCITEGIC>MOL_PROPERTY
W(SA)
SciTegic.value.DoubleValue
2.015

@<SCITEGIC>MOL_PROPERTY
Valence
SciTegic.value.DoubleValue
13.328

@<SCITEGIC>MOL_PROPERTY
Coulomb
SciTegic.value.DoubleValue
-8.387

@<SCITEGIC>MOL_PROPERTY
VdW
SciTegic.value.DoubleValue
3.840

@<SCITEGIC>MOL_PROPERTY
VdW6
SciTegic.value.DoubleValue
-9.744

@<SCITEGIC>MOL_PROPERTY
VdW12
SciTegic.value.DoubleValue
13.584

@<SCITEGIC>MOL_PROPERTY
Bond
SciTegic.value.DoubleValue
0.436

@<SCITEGIC>MOL_PROPERTY
Angle
SciTegic.value.DoubleValue
3.478

@<SCITEGIC>MOL_PROPERTY
Pdih
SciTegic.value.DoubleValue
9.415

@<SCITEGIC>MOL_PROPERTY
Idih
SciTegic.value.DoubleValue
0.000

@<SCITEGIC>MOL_PROPERTY
Tether
SciTegic.value.DoubleValue
0.000

@<TRIPOS>MOLECULE
guest-5_confgen4.mol2 : confsearch ligand conformer 714
          22          22           1
SMALL
USER_CHARGES
 
@<TRIPOS>ATOM
       1    C1      20.907017   20.254383   23.997780 C.3        1 MOL1        -0.1685
       2    H1      21.437982   20.904262   23.289019 H          1 MOL1         0.0832
       3    H2      21.289714   20.514983   24.994041 H          1 MOL1         0.0832
       4    C2      21.241696   18.765195   23.740942 C.3        1 MOL1        -0.1685
       5    H3      22.292552   18.591306   24.009866 H          1 MOL1         0.0832
       6    H4      20.651543   18.136668   24.421789 H          1 MOL1         0.0832
       7    C3      21.029900   18.283034   22.287328 C.3        1 MOL1        -0.1685
       8    H5      21.234597   17.204324   22.251129 H          1 MOL1         0.0832
       9    H6      21.778778   18.752106   21.634555 H          1 MOL1         0.0832
      10    C4      19.614396   18.536935   21.713688 C.3        1 MOL1        -0.1761
      11    H7      19.522306   17.954771   20.787357 H          1 MOL1         0.0832
      12    H8      18.845379   18.150456   22.395042 H          1 MOL1         0.0832
      13    C5      19.357530   20.027394   21.397173 C.3        1 MOL1         0.1218
      14    H9      20.308435   20.481433   21.083369 H          1 MOL1         0.0789
      15    C6      18.795868   20.847512   22.580912 C.3        1 MOL1        -0.1761
      16    H10     18.957555   21.909322   22.354491 H          1 MOL1         0.0832
      17    H11     17.707059   20.713286   22.631787 H          1 MOL1         0.0832
      18    C7      19.387388   20.541508   23.979665 C.3        1 MOL1        -0.1685
      19    H12     19.178850   21.400670   24.631722 H          1 MOL1         0.0832
      20    H13     18.850406   19.694781   24.428457 H          1 MOL1         0.0832
      21    O1      18.430831   20.114486   20.321598 O.3        1 MOL1        -0.5509
      22    H14     18.839275   19.653694   19.559061 H          1 MOL1         0.3779
@<TRIPOS>BOND
    1     1     2    1
    2     1     3    1
    3     1     4    1
    4     4     5    1
    5     4     6    1
    6     4     7    1
    7     7     8    1
    8     7     9    1
    9     7    10    1
   10    10    11    1
   11    10    12    1
   12    10    13    1
   13    13    14    1
   14    13    15    1
   15    15    16    1
   16    15    17    1
   17     1    18    1
   18    15    18    1
   19    18    19    1
   20    18    20    1
   21    13    21    1
   22    21    22    1
@<TRIPOS>SUBSTRUCTURE
       1 MOL1            1 RESIDUE      1      MOL     
@<SCITEGIC>MOL_PROPERTY
VConf Rank
SciTegic.value.IntegerValue
714

@<SCITEGIC>MOL_PROPERTY
Conf_Id
SciTegic.value.IntegerValue
144

@<SCITEGIC>MOL_PROPERTY
Delta U+W
SciTegic.value.DoubleValue
-3.291

@<SCITEGIC>MOL_PROPERTY
U+W
SciTegic.value.DoubleValue
3.132

@<SCITEGIC>MOL_PROPERTY
Grad RMS
SciTegic.value.DoubleValue
0.000000

@<SCITEGIC>MOL_PROPERTY
U
SciTegic.value.DoubleValue
5.411

@<SCITEGIC>MOL_PROPERTY
W
SciTegic.value.DoubleValue
-2.279

@<SCITEGIC>MOL_PROPERTY
W(PB)
SciTegic.value.DoubleValue
-4.300

@<SCITEGIC>MOL_PROPERTY
W(SA)
SciTegic.value.DoubleValue
2.021

@<SCITEGIC>MOL_PROPERTY
Valence
SciTegic.value.DoubleValue
11.909

@<SCITEGIC>MOL_PROPERTY
Coulomb
SciTegic.value.DoubleValue
-8.733

@<SCITEGIC>MOL_PROPERTY
VdW
SciTegic.value.DoubleValue
2.236

@<SCITEGIC>MOL_PROPERTY
VdW6
SciTegic.value.DoubleValue
-8.936

@<SCITEGIC>MOL_PROPERTY
VdW12
SciTegic.value.DoubleValue
11.172

@<SCITEGIC>MOL_PROPERTY
Bond
SciTegic.value.DoubleValue
0.223

@<SCITEGIC>MOL_PROPERTY
Angle
SciTegic.value.DoubleValue
2.457

@<SCITEGIC>MOL_PROPERTY
Pdih
SciTegic.value.DoubleValue
9.228

@<SCITEGIC>MOL_PROPERTY
Idih
SciTegic.value.DoubleValue
0.000

@<SCITEGIC>MOL_PROPERTY
Tether
SciTegic.value.DoubleValue
0.000

@<TRIPOS>MOLECULE
guest-5_confgen4.mol2 : confsearch ligand conformer 715
          22          22           1
SMALL
USER_CHARGES
 
@<TRIPOS>ATOM
       1    C1      21.580078   19.135180   23.024945 C.3        1 MOL1        -0.1685
       2    H1      22.487944   18.687172   23.451512 H          1 MOL1         0.0832
       3    H2      21.922437   19.849399   22.263786 H          1 MOL1         0.0832
       4    C2      20.825295   19.861842   24.162635 C.3        1 MOL1        -0.1685
       5    H3      20.222789   19.134921   24.724193 H          1 MOL1         0.0832
       6    H4      21.557851   20.252801   24.882017 H          1 MOL1         0.0832
       7    C3      19.928611   21.038881   23.708256 C.3        1 MOL1        -0.1685
       8    H5      20.547783   21.940379   23.604129 H          1 MOL1         0.0832
       9    H6      19.216360   21.258029   24.515529 H          1 MOL1         0.0832
      10    C4      19.146389   20.836072   22.387220 C.3        1 MOL1        -0.1761
      11    H7      18.329519   21.570021   22.364565 H          1 MOL1         0.0832
      12    H8      19.797359   21.089069   21.540388 H          1 MOL1         0.0832
      13    C5      18.570275   19.416990   22.182538 C.3        1 MOL1         0.1218
      14    H9      18.269941   18.997924   23.153440 H          1 MOL1         0.0789
      15    C6      19.573590   18.463748   21.494303 C.3        1 MOL1        -0.1761
      16    H10     19.032684   17.571327   21.152050 H          1 MOL1         0.0832
      17    H11     19.972218   18.942074   20.590210 H          1 MOL1         0.0832
      18    C7      20.751336   17.997033   22.382450 C.3        1 MOL1        -0.1685
      19    H12     20.371791   17.332433   23.170598 H          1 MOL1         0.0832
      20    H13     21.421028   17.380132   21.767849 H          1 MOL1         0.0832
      21    O1      17.422168   19.516604   21.350590 O.3        1 MOL1        -0.5509
      22    H14     17.728627   19.893596   20.500225 H          1 MOL1         0.3779
@<TRIPOS>BOND
    1     1     2    1
    2     1     3    1
    3     1     4    1
    4     4     5    1
    5     4     6    1
    6     4     7    1
    7     7     8    1
    8     7     9    1
    9     7    10    1
   10    10    11    1
   11    10    12    1
   12    10    13    1
   13    13    14    1
   14    13    15    1
   15    15    16    1
   16    15    17    1
   17     1    18    1
   18    15    18    1
   19    18    19    1
   20    18    20    1
   21    13    21    1
   22    21    22    1
@<TRIPOS>SUBSTRUCTURE
       1 MOL1            1 RESIDUE      1      MOL     
@<SCITEGIC>MOL_PROPERTY
VConf Rank
SciTegic.value.IntegerValue
715

@<SCITEGIC>MOL_PROPERTY
Conf_Id
SciTegic.value.IntegerValue
76

@<SCITEGIC>MOL_PROPERTY
Delta U+W
SciTegic.value.DoubleValue
-3.175

@<SCITEGIC>MOL_PROPERTY
U+W
SciTegic.value.DoubleValue
3.248

@<SCITEGIC>MOL_PROPERTY
Grad RMS
SciTegic.value.DoubleValue
0.000000

@<SCITEGIC>MOL_PROPERTY
U
SciTegic.value.DoubleValue
5.336

@<SCITEGIC>MOL_PROPERTY
W
SciTegic.value.DoubleValue
-2.088

@<SCITEGIC>MOL_PROPERTY
W(PB)
SciTegic.value.DoubleValue
-4.098

@<SCITEGIC>MOL_PROPERTY
W(SA)
SciTegic.value.DoubleValue
2.010

@<SCITEGIC>MOL_PROPERTY
Valence
SciTegic.value.DoubleValue
12.390

@<SCITEGIC>MOL_PROPERTY
Coulomb
SciTegic.value.DoubleValue
-9.270

@<SCITEGIC>MOL_PROPERTY
VdW
SciTegic.value.DoubleValue
2.216

@<SCITEGIC>MOL_PROPERTY
VdW6
SciTegic.value.DoubleValue
-8.967

@<SCITEGIC>MOL_PROPERTY
VdW12
SciTegic.value.DoubleValue
11.183

@<SCITEGIC>MOL_PROPERTY
Bond
SciTegic.value.DoubleValue
0.218

@<SCITEGIC>MOL_PROPERTY
Angle
SciTegic.value.DoubleValue
2.426

@<SCITEGIC>MOL_PROPERTY
Pdih
SciTegic.value.DoubleValue
9.745

@<SCITEGIC>MOL_PROPERTY
Idih
SciTegic.value.DoubleValue
0.000

@<SCITEGIC>MOL_PROPERTY
Tether
SciTegic.value.DoubleValue
0.000

@<TRIPOS>MOLECULE
guest-5_confgen4.mol2 : confsearch ligand conformer 716
          22          22           1
SMALL
USER_CHARGES
 
@<TRIPOS>ATOM
       1    C1      19.195201   21.056862   21.976061 C.3        1 MOL1        -0.1685
       2    H1      19.300048   21.468016   20.962779 H          1 MOL1         0.0832
       3    H2      18.411696   21.655085   22.460897 H          1 MOL1         0.0832
       4    C2      20.530172   21.275414   22.727567 C.3        1 MOL1        -0.1685
       5    H3      21.368773   21.149001   22.029536 H          1 MOL1         0.0832
       6    H4      20.571051   22.325238   23.048477 H          1 MOL1         0.0832
       7    C3      20.744327   20.365082   23.959223 C.3        1 MOL1        -0.1685
       8    H5      19.801213   20.205545   24.499518 H          1 MOL1         0.0832
       9    H6      21.411051   20.888025   24.658008 H          1 MOL1         0.0832
      10    C4      21.407773   19.011996   23.597177 C.3        1 MOL1        -0.1761
      11    H7      22.307374   19.200344   22.997381 H          1 MOL1         0.0832
      12    H8      21.763655   18.538040   24.521367 H          1 MOL1         0.0832
      13    C5      20.516998   17.992368   22.851539 C.3        1 MOL1         0.1218
      14    H9      21.178025   17.180961   22.514256 H          1 MOL1         0.0789
      15    C6      19.793910   18.542577   21.596588 C.3        1 MOL1        -0.1761
      16    H10     20.530178   18.949444   20.891431 H          1 MOL1         0.0832
      17    H11     19.330287   17.691224   21.081769 H          1 MOL1         0.0832
      18    C7      18.692222   19.596728   21.879905 C.3        1 MOL1        -0.1685
      19    H12     17.943717   19.550276   21.077407 H          1 MOL1         0.0832
      20    H13     18.149789   19.337236   22.798530 H          1 MOL1         0.0832
      21    O1      19.569105   17.442980   23.761317 O.3        1 MOL1        -0.5509
      22    H14     18.995657   16.845368   23.239493 H          1 MOL1         0.3779
@<TRIPOS>BOND
    1     1     2    1
    2     1     3    1
    3     1     4    1
    4     4     5    1
    5     4     6    1
    6     4     7    1
    7     7     8    1
    8     7     9    1
    9     7    10    1
   10    10    11    1
   11    10    12    1
   12    10    13    1
   13    13    14    1
   14    13    15    1
   15    15    16    1
   16    15    17    1
   17     1    18    1
   18    15    18    1
   19    18    19    1
   20    18    20    1
   21    13    21    1
   22    21    22    1
@<TRIPOS>SUBSTRUCTURE
       1 MOL1            1 RESIDUE      1      MOL     
@<SCITEGIC>MOL_PROPERTY
VConf Rank
SciTegic.value.IntegerValue
716

@<SCITEGIC>MOL_PROPERTY
Conf_Id
SciTegic.value.IntegerValue
95

@<SCITEGIC>MOL_PROPERTY
Delta U+W
SciTegic.value.DoubleValue
-2.289

@<SCITEGIC>MOL_PROPERTY
U+W
SciTegic.value.DoubleValue
4.134

@<SCITEGIC>MOL_PROPERTY
Grad RMS
SciTegic.value.DoubleValue
0.000000

@<SCITEGIC>MOL_PROPERTY
U
SciTegic.value.DoubleValue
6.373

@<SCITEGIC>MOL_PROPERTY
W
SciTegic.value.DoubleValue
-2.240

@<SCITEGIC>MOL_PROPERTY
W(PB)
SciTegic.value.DoubleValue
-4.254

@<SCITEGIC>MOL_PROPERTY
W(SA)
SciTegic.value.DoubleValue
2.015

@<SCITEGIC>MOL_PROPERTY
Valence
SciTegic.value.DoubleValue
12.093

@<SCITEGIC>MOL_PROPERTY
Coulomb
SciTegic.value.DoubleValue
-8.058

@<SCITEGIC>MOL_PROPERTY
VdW
SciTegic.value.DoubleValue
2.339

@<SCITEGIC>MOL_PROPERTY
VdW6
SciTegic.value.DoubleValue
-9.683

@<SCITEGIC>MOL_PROPERTY
VdW12
SciTegic.value.DoubleValue
12.022

@<SCITEGIC>MOL_PROPERTY
Bond
SciTegic.value.DoubleValue
0.268

@<SCITEGIC>MOL_PROPERTY
Angle
SciTegic.value.DoubleValue
3.005

@<SCITEGIC>MOL_PROPERTY
Pdih
SciTegic.value.DoubleValue
8.820

@<SCITEGIC>MOL_PROPERTY
Idih
SciTegic.value.DoubleValue
0.000

@<SCITEGIC>MOL_PROPERTY
Tether
SciTegic.value.DoubleValue
0.000

@<TRIPOS>MOLECULE
guest-5_confgen4.mol2 : confsearch ligand conformer 717
          22          22           1
SMALL
USER_CHARGES
 
@<TRIPOS>ATOM
       1    C1      21.935287   19.692264   22.432256 C.3        1 MOL1        -0.1685
       2    H1      22.489056   19.513900   21.500441 H          1 MOL1         0.0832
       3    H2      22.692359   19.958336   23.182481 H          1 MOL1         0.0832
       4    C2      21.256926   18.366815   22.853375 C.3        1 MOL1        -0.1685
       5    H3      20.924903   17.824948   21.957485 H          1 MOL1         0.0832
       6    H4      22.020431   17.727221   23.316816 H          1 MOL1         0.0832
       7    C3      20.069273   18.520428   23.831843 C.3        1 MOL1        -0.1685
       8    H5      20.260441   19.320740   24.559699 H          1 MOL1         0.0832
       9    H6      19.985628   17.592620   24.413738 H          1 MOL1         0.0832
      10    C4      18.720018   18.744238   23.103330 C.3        1 MOL1        -0.1761
      11    H7      18.600586   17.978640   22.325838 H          1 MOL1         0.0832
      12    H8      17.903261   18.566243   23.814813 H          1 MOL1         0.0832
      13    C5      18.513384   20.135927   22.462832 C.3        1 MOL1         0.1218
      14    H9      17.603681   20.070943   21.848570 H          1 MOL1         0.0789
      15    C6      19.657762   20.607686   21.531072 C.3        1 MOL1        -0.1761
      16    H10     19.812072   19.876372   20.727420 H          1 MOL1         0.0832
      17    H11     19.316411   21.527165   21.038256 H          1 MOL1         0.0832
      18    C7      21.002863   20.912192   22.240593 C.3        1 MOL1        -0.1685
      19    H12     21.547925   21.664607   21.654935 H          1 MOL1         0.0832
      20    H13     20.813069   21.384246   23.213611 H          1 MOL1         0.0832
      21    O1      18.288534   21.098917   23.488008 O.3        1 MOL1        -0.5509
      22    H14     17.572464   20.745369   24.054077 H          1 MOL1         0.3779
@<TRIPOS>BOND
    1     1     2    1
    2     1     3    1
    3     1     4    1
    4     4     5    1
    5     4     6    1
    6     4     7    1
    7     7     8    1
    8     7     9    1
    9     7    10    1
   10    10    11    1
   11    10    12    1
   12    10    13    1
   13    13    14    1
   14    13    15    1
   15    15    16    1
   16    15    17    1
   17     1    18    1
   18    15    18    1
   19    18    19    1
   20    18    20    1
   21    13    21    1
   22    21    22    1
@<TRIPOS>SUBSTRUCTURE
       1 MOL1            1 RESIDUE      1      MOL     
@<SCITEGIC>MOL_PROPERTY
VConf Rank
SciTegic.value.IntegerValue
717

@<SCITEGIC>MOL_PROPERTY
Conf_Id
SciTegic.value.IntegerValue
41

@<SCITEGIC>MOL_PROPERTY
Delta U+W
SciTegic.value.DoubleValue
-2.114

@<SCITEGIC>MOL_PROPERTY
U+W
SciTegic.value.DoubleValue
4.310

@<SCITEGIC>MOL_PROPERTY
Grad RMS
SciTegic.value.DoubleValue
0.000000

@<SCITEGIC>MOL_PROPERTY
U
SciTegic.value.DoubleValue
6.598

@<SCITEGIC>MOL_PROPERTY
W
SciTegic.value.DoubleValue
-2.289

@<SCITEGIC>MOL_PROPERTY
W(PB)
SciTegic.value.DoubleValue
-4.294

@<SCITEGIC>MOL_PROPERTY
W(SA)
SciTegic.value.DoubleValue
2.005

@<SCITEGIC>MOL_PROPERTY
Valence
SciTegic.value.DoubleValue
12.082

@<SCITEGIC>MOL_PROPERTY
Coulomb
SciTegic.value.DoubleValue
-7.801

@<SCITEGIC>MOL_PROPERTY
VdW
SciTegic.value.DoubleValue
2.317

@<SCITEGIC>MOL_PROPERTY
VdW6
SciTegic.value.DoubleValue
-9.658

@<SCITEGIC>MOL_PROPERTY
VdW12
SciTegic.value.DoubleValue
11.975

@<SCITEGIC>MOL_PROPERTY
Bond
SciTegic.value.DoubleValue
0.267

@<SCITEGIC>MOL_PROPERTY
Angle
SciTegic.value.DoubleValue
3.051

@<SCITEGIC>MOL_PROPERTY
Pdih
SciTegic.value.DoubleValue
8.764

@<SCITEGIC>MOL_PROPERTY
Idih
SciTegic.value.DoubleValue
0.000

@<SCITEGIC>MOL_PROPERTY
Tether
SciTegic.value.DoubleValue
0.000

@<TRIPOS>MOLECULE
guest-5_confgen4.mol2 : confsearch ligand conformer 718
          22          22           1
SMALL
USER_CHARGES
 
@<TRIPOS>ATOM
       1    C1      19.283473   19.605637   24.174052 C.3        1 MOL1        -0.1685
       2    H1      18.780496   19.390092   25.126473 H          1 MOL1         0.0832
       3    H2      19.575253   20.664203   24.212505 H          1 MOL1         0.0832
       4    C2      18.268106   19.359674   23.035667 C.3        1 MOL1        -0.1685
       5    H3      18.037378   18.287490   22.974288 H          1 MOL1         0.0832
       6    H4      17.323406   19.856612   23.294807 H          1 MOL1         0.0832
       7    C3      18.718452   19.870018   21.649320 C.3        1 MOL1        -0.1685
       8    H5      18.743981   20.967838   21.654673 H          1 MOL1         0.0832
       9    H6      17.943476   19.597582   20.920406 H          1 MOL1         0.0832
      10    C4      20.077606   19.309641   21.149455 C.3        1 MOL1        -0.1761
      11    H7      20.081147   18.214329   21.216805 H          1 MOL1         0.0832
      12    H8      20.158867   19.540946   20.079652 H          1 MOL1         0.0832
      13    C5      21.342922   19.883226   21.837937 C.3        1 MOL1         0.1218
      14    H9      22.193301   19.647012   21.181936 H          1 MOL1         0.0789
      15    C6      21.689254   19.283238   23.225456 C.3        1 MOL1        -0.1761
      16    H10     22.424032   18.481839   23.074053 H          1 MOL1         0.0832
      17    H11     22.210232   20.042409   23.823548 H          1 MOL1         0.0832
      18    C7      20.529282   18.698485   24.068918 C.3        1 MOL1        -0.1685
      19    H12     20.240625   17.714701   23.674889 H          1 MOL1         0.0832
      20    H13     20.912343   18.509292   25.080920 H          1 MOL1         0.0832
      21    O1      21.256379   21.302240   21.937074 O.3        1 MOL1        -0.5509
      22    H14     22.093877   21.609127   22.339972 H          1 MOL1         0.3779
@<TRIPOS>BOND
    1     1     2    1
    2     1     3    1
    3     1     4    1
    4     4     5    1
    5     4     6    1
    6     4     7    1
    7     7     8    1
    8     7     9    1
    9     7    10    1
   10    10    11    1
   11    10    12    1
   12    10    13    1
   13    13    14    1
   14    13    15    1
   15    15    16    1
   16    15    17    1
   17     1    18    1
   18    15    18    1
   19    18    19    1
   20    18    20    1
   21    13    21    1
   22    21    22    1
@<TRIPOS>SUBSTRUCTURE
       1 MOL1            1 RESIDUE      1      MOL     
@<SCITEGIC>MOL_PROPERTY
VConf Rank
SciTegic.value.IntegerValue
718

@<SCITEGIC>MOL_PROPERTY
Conf_Id
SciTegic.value.IntegerValue
104

@<SCITEGIC>MOL_PROPERTY
Delta U+W
SciTegic.value.DoubleValue
-1.172

@<SCITEGIC>MOL_PROPERTY
U+W
SciTegic.value.DoubleValue
5.252

@<SCITEGIC>MOL_PROPERTY
Grad RMS
SciTegic.value.DoubleValue
0.000000

@<SCITEGIC>MOL_PROPERTY
U
SciTegic.value.DoubleValue
7.482

@<SCITEGIC>MOL_PROPERTY
W
SciTegic.value.DoubleValue
-2.230

@<SCITEGIC>MOL_PROPERTY
W(PB)
SciTegic.value.DoubleValue
-4.220

@<SCITEGIC>MOL_PROPERTY
W(SA)
SciTegic.value.DoubleValue
1.990

@<SCITEGIC>MOL_PROPERTY
Valence
SciTegic.value.DoubleValue
12.309

@<SCITEGIC>MOL_PROPERTY
Coulomb
SciTegic.value.DoubleValue
-7.084

@<SCITEGIC>MOL_PROPERTY
VdW
SciTegic.value.DoubleValue
2.258

@<SCITEGIC>MOL_PROPERTY
VdW6
SciTegic.value.DoubleValue
-9.770

@<SCITEGIC>MOL_PROPERTY
VdW12
SciTegic.value.DoubleValue
12.028

@<SCITEGIC>MOL_PROPERTY
Bond
SciTegic.value.DoubleValue
0.284

@<SCITEGIC>MOL_PROPERTY
Angle
SciTegic.value.DoubleValue
3.491

@<SCITEGIC>MOL_PROPERTY
Pdih
SciTegic.value.DoubleValue
8.535

@<SCITEGIC>MOL_PROPERTY
Idih
SciTegic.value.DoubleValue
0.000

@<SCITEGIC>MOL_PROPERTY
Tether
SciTegic.value.DoubleValue
0.000

@<TRIPOS>MOLECULE
guest-5_confgen4.mol2 : confsearch ligand conformer 719
          22          22           1
SMALL
USER_CHARGES
 
@<TRIPOS>ATOM
       1    C1      20.346867   20.775032   21.566306 C.3        1 MOL1        -0.1685
       2    H1      20.351584   21.567742   22.326617 H          1 MOL1         0.0832
       3    H2      20.501730   21.279596   20.602785 H          1 MOL1         0.0832
       4    C2      18.973234   20.067989   21.514290 C.3        1 MOL1        -0.1685
       5    H3      18.277187   20.696473   20.941772 H          1 MOL1         0.0832
       6    H4      19.063056   19.141265   20.932525 H          1 MOL1         0.0832
       7    C3      18.319239   19.769466   22.887188 C.3        1 MOL1        -0.1685
       8    H5      17.635702   18.917355   22.768871 H          1 MOL1         0.0832
       9    H6      17.679542   20.620076   23.159548 H          1 MOL1         0.0832
      10    C4      19.270170   19.497358   24.084222 C.3        1 MOL1        -0.1761
      11    H7      19.654907   20.453718   24.461460 H          1 MOL1         0.0832
      12    H8      18.670863   19.084220   24.905897 H          1 MOL1         0.0832
      13    C5      20.463043   18.546286   23.834231 C.3        1 MOL1         0.1218
      14    H9      20.779325   18.154561   24.811676 H          1 MOL1         0.0789
      15    C6      21.686960   19.266096   23.224174 C.3        1 MOL1        -0.1761
      16    H10     21.967316   20.100310   23.880336 H          1 MOL1         0.0832
      17    H11     22.538087   18.573066   23.247349 H          1 MOL1         0.0832
      18    C7      21.526972   19.797000   21.778028 C.3        1 MOL1        -0.1685
      19    H12     22.456783   20.314288   21.504944 H          1 MOL1         0.0832
      20    H13     21.442284   18.953963   21.079032 H          1 MOL1         0.0832
      21    O1      20.071056   17.461478   23.007364 O.3        1 MOL1        -0.5509
      22    H14     19.727802   17.890183   22.198244 H          1 MOL1         0.3779
@<TRIPOS>BOND
    1     1     2    1
    2     1     3    1
    3     1     4    1
    4     4     5    1
    5     4     6    1
    6     4     7    1
    7     7     8    1
    8     7     9    1
    9     7    10    1
   10    10    11    1
   11    10    12    1
   12    10    13    1
   13    13    14    1
   14    13    15    1
   15    15    16    1
   16    15    17    1
   17     1    18    1
   18    15    18    1
   19    18    19    1
   20    18    20    1
   21    13    21    1
   22    21    22    1
@<TRIPOS>SUBSTRUCTURE
       1 MOL1            1 RESIDUE      1      MOL     
@<SCITEGIC>MOL_PROPERTY
VConf Rank
SciTegic.value.IntegerValue
719

@<SCITEGIC>MOL_PROPERTY
Conf_Id
SciTegic.value.IntegerValue
99

@<SCITEGIC>MOL_PROPERTY
Delta U+W
SciTegic.value.DoubleValue
-3.852

@<SCITEGIC>MOL_PROPERTY
U+W
SciTegic.value.DoubleValue
2.572

@<SCITEGIC>MOL_PROPERTY
Grad RMS
SciTegic.value.DoubleValue
0.000000

@<SCITEGIC>MOL_PROPERTY
U
SciTegic.value.DoubleValue
3.922

@<SCITEGIC>MOL_PROPERTY
W
SciTegic.value.DoubleValue
-1.350

@<SCITEGIC>MOL_PROPERTY
W(PB)
SciTegic.value.DoubleValue
-3.345

@<SCITEGIC>MOL_PROPERTY
W(SA)
SciTegic.value.DoubleValue
1.995

@<SCITEGIC>MOL_PROPERTY
Valence
SciTegic.value.DoubleValue
12.571

@<SCITEGIC>MOL_PROPERTY
Coulomb
SciTegic.value.DoubleValue
-10.581

@<SCITEGIC>MOL_PROPERTY
VdW
SciTegic.value.DoubleValue
1.932

@<SCITEGIC>MOL_PROPERTY
VdW6
SciTegic.value.DoubleValue
-10.483

@<SCITEGIC>MOL_PROPERTY
VdW12
SciTegic.value.DoubleValue
12.415

@<SCITEGIC>MOL_PROPERTY
Bond
SciTegic.value.DoubleValue
0.268

@<SCITEGIC>MOL_PROPERTY
Angle
SciTegic.value.DoubleValue
3.728

@<SCITEGIC>MOL_PROPERTY
Pdih
SciTegic.value.DoubleValue
8.575

@<SCITEGIC>MOL_PROPERTY
Idih
SciTegic.value.DoubleValue
0.000

@<SCITEGIC>MOL_PROPERTY
Tether
SciTegic.value.DoubleValue
0.000

@<TRIPOS>MOLECULE
guest-5_confgen4.mol2 : confsearch ligand conformer 720
          22          22           1
SMALL
USER_CHARGES
 
@<TRIPOS>ATOM
       1    C1      19.020879   20.428336   23.662071 C.3        1 MOL1        -0.1685
       2    H1      18.607074   20.674629   24.649693 H          1 MOL1         0.0832
       3    H2      18.471667   21.067299   22.957694 H          1 MOL1         0.0832
       4    C2      18.714882   18.928742   23.376701 C.3        1 MOL1        -0.1685
       5    H3      18.168491   18.526010   24.240734 H          1 MOL1         0.0832
       6    H4      18.017043   18.838731   22.533510 H          1 MOL1         0.0832
       7    C3      19.945905   18.019404   23.130862 C.3        1 MOL1        -0.1685
       8    H5      19.610782   16.973284   23.138010 H          1 MOL1         0.0832
       9    H6      20.636449   18.093393   23.980123 H          1 MOL1         0.0832
      10    C4      20.718031   18.262019   21.804292 C.3        1 MOL1        -0.1761
      11    H7      21.736372   17.870254   21.923637 H          1 MOL1         0.0832
      12    H8      20.260361   17.645725   21.018979 H          1 MOL1         0.0832
      13    C5      20.810396   19.710949   21.265564 C.3        1 MOL1         0.1218
      14    H9      21.568286   19.707842   20.469092 H          1 MOL1         0.0789
      15    C6      21.234762   20.795639   22.286106 C.3        1 MOL1        -0.1761
      16    H10     22.314221   20.703491   22.462227 H          1 MOL1         0.0832
      17    H11     21.101963   21.773372   21.804028 H          1 MOL1         0.0832
      18    C7      20.518794   20.827081   23.664946 C.3        1 MOL1        -0.1685
      19    H12     21.066924   20.202453   24.381159 H          1 MOL1         0.0832
      20    H13     20.605155   21.846444   24.065153 H          1 MOL1         0.0832
      21    O1      19.576432   20.076274   20.667975 O.3        1 MOL1        -0.5509
      22    H14     18.941002   20.064531   21.411630 H          1 MOL1         0.3779
@<TRIPOS>BOND
    1     1     2    1
    2     1     3    1
    3     1     4    1
    4     4     5    1
    5     4     6    1
    6     4     7    1
    7     7     8    1
    8     7     9    1
    9     7    10    1
   10    10    11    1
   11    10    12    1
   12    10    13    1
   13    13    14    1
   14    13    15    1
   15    15    16    1
   16    15    17    1
   17     1    18    1
   18    15    18    1
   19    18    19    1
   20    18    20    1
   21    13    21    1
   22    21    22    1
@<TRIPOS>SUBSTRUCTURE
       1 MOL1            1 RESIDUE      1      MOL     
@<SCITEGIC>MOL_PROPERTY
VConf Rank
SciTegic.value.IntegerValue
720

@<SCITEGIC>MOL_PROPERTY
Conf_Id
SciTegic.value.IntegerValue
98

@<SCITEGIC>MOL_PROPERTY
Delta U+W
SciTegic.value.DoubleValue
0.930

@<SCITEGIC>MOL_PROPERTY
U+W
SciTegic.value.DoubleValue
7.353

@<SCITEGIC>MOL_PROPERTY
Grad RMS
SciTegic.value.DoubleValue
0.000000

@<SCITEGIC>MOL_PROPERTY
U
SciTegic.value.DoubleValue
8.455

@<SCITEGIC>MOL_PROPERTY
W
SciTegic.value.DoubleValue
-1.102

@<SCITEGIC>MOL_PROPERTY
W(PB)
SciTegic.value.DoubleValue
-3.101

@<SCITEGIC>MOL_PROPERTY
W(SA)
SciTegic.value.DoubleValue
2.000

@<SCITEGIC>MOL_PROPERTY
Valence
SciTegic.value.DoubleValue
15.601

@<SCITEGIC>MOL_PROPERTY
Coulomb
SciTegic.value.DoubleValue
-10.573

@<SCITEGIC>MOL_PROPERTY
VdW
SciTegic.value.DoubleValue
3.427

@<SCITEGIC>MOL_PROPERTY
VdW6
SciTegic.value.DoubleValue
-11.360

@<SCITEGIC>MOL_PROPERTY
VdW12
SciTegic.value.DoubleValue
14.787

@<SCITEGIC>MOL_PROPERTY
Bond
SciTegic.value.DoubleValue
0.471

@<SCITEGIC>MOL_PROPERTY
Angle
SciTegic.value.DoubleValue
5.445

@<SCITEGIC>MOL_PROPERTY
Pdih
SciTegic.value.DoubleValue
9.685

@<SCITEGIC>MOL_PROPERTY
Idih
SciTegic.value.DoubleValue
0.000

@<SCITEGIC>MOL_PROPERTY
Tether
SciTegic.value.DoubleValue
0.000

@<TRIPOS>MOLECULE
guest-5_confgen4.mol2 : confsearch ligand conformer 721
          22          22           1
SMALL
USER_CHARGES
 
@<TRIPOS>ATOM
       1    C1      19.723765   20.149020   24.233244 C.3        1 MOL1        -0.1685
       2    H1      18.939269   20.774383   23.787970 H          1 MOL1         0.0832
       3    H2      19.674785   20.354681   25.311213 H          1 MOL1         0.0832
       4    C2      21.111621   20.596648   23.708224 C.3        1 MOL1        -0.1685
       5    H3      21.244078   21.652207   23.982311 H          1 MOL1         0.0832
       6    H4      21.900597   20.049535   24.241898 H          1 MOL1         0.0832
       7    C3      21.342762   20.461976   22.177511 C.3        1 MOL1        -0.1685
       8    H5      21.970166   19.586094   21.967248 H          1 MOL1         0.0832
       9    H6      21.938138   21.322757   21.844019 H          1 MOL1         0.0832
      10    C4      20.050463   20.389950   21.321658 C.3        1 MOL1        -0.1761
      11    H7      19.398750   21.233150   21.582254 H          1 MOL1         0.0832
      12    H8      20.322728   20.558679   20.271044 H          1 MOL1         0.0832
      13    C5      19.238906   19.065388   21.425499 C.3        1 MOL1         0.1218
      14    H9      18.178182   19.326850   21.550274 H          1 MOL1         0.0789
      15    C6      19.640951   18.113813   22.580107 C.3        1 MOL1        -0.1761
      16    H10     19.086956   17.172081   22.473859 H          1 MOL1         0.0832
      17    H11     20.697046   17.836301   22.478911 H          1 MOL1         0.0832
      18    C7      19.384395   18.656781   24.008103 C.3        1 MOL1        -0.1685
      19    H12     18.326206   18.505170   24.261213 H          1 MOL1         0.0832
      20    H13     19.955144   18.045919   24.720679 H          1 MOL1         0.0832
      21    O1      19.392476   18.346126   20.207199 O.3        1 MOL1        -0.5509
      22    H14     18.827870   17.548292   20.276902 H          1 MOL1         0.3779
@<TRIPOS>BOND
    1     1     2    1
    2     1     3    1
    3     1     4    1
    4     4     5    1
    5     4     6    1
    6     4     7    1
    7     7     8    1
    8     7     9    1
    9     7    10    1
   10    10    11    1
   11    10    12    1
   12    10    13    1
   13    13    14    1
   14    13    15    1
   15    15    16    1
   16    15    17    1
   17     1    18    1
   18    15    18    1
   19    18    19    1
   20    18    20    1
   21    13    21    1
   22    21    22    1
@<TRIPOS>SUBSTRUCTURE
       1 MOL1            1 RESIDUE      1      MOL     
@<SCITEGIC>MOL_PROPERTY
VConf Rank
SciTegic.value.IntegerValue
721

@<SCITEGIC>MOL_PROPERTY
Conf_Id
SciTegic.value.IntegerValue
141

@<SCITEGIC>MOL_PROPERTY
Delta U+W
SciTegic.value.DoubleValue
0.000

@<SCITEGIC>MOL_PROPERTY
U+W
SciTegic.value.DoubleValue
6.423

@<SCITEGIC>MOL_PROPERTY
Grad RMS
SciTegic.value.DoubleValue
0.000000

@<SCITEGIC>MOL_PROPERTY
U
SciTegic.value.DoubleValue
8.781

@<SCITEGIC>MOL_PROPERTY
W
SciTegic.value.DoubleValue
-2.358

@<SCITEGIC>MOL_PROPERTY
W(PB)
SciTegic.value.DoubleValue
-4.373

@<SCITEGIC>MOL_PROPERTY
W(SA)
SciTegic.value.DoubleValue
2.015

@<SCITEGIC>MOL_PROPERTY
Valence
SciTegic.value.DoubleValue
13.328

@<SCITEGIC>MOL_PROPERTY
Coulomb
SciTegic.value.DoubleValue
-8.387

@<SCITEGIC>MOL_PROPERTY
VdW
SciTegic.value.DoubleValue
3.840

@<SCITEGIC>MOL_PROPERTY
VdW6
SciTegic.value.DoubleValue
-9.744

@<SCITEGIC>MOL_PROPERTY
VdW12
SciTegic.value.DoubleValue
13.584

@<SCITEGIC>MOL_PROPERTY
Bond
SciTegic.value.DoubleValue
0.436

@<SCITEGIC>MOL_PROPERTY
Angle
SciTegic.value.DoubleValue
3.478

@<SCITEGIC>MOL_PROPERTY
Pdih
SciTegic.value.DoubleValue
9.415

@<SCITEGIC>MOL_PROPERTY
Idih
SciTegic.value.DoubleValue
0.000

@<SCITEGIC>MOL_PROPERTY
Tether
SciTegic.value.DoubleValue
0.000

@<TRIPOS>MOLECULE
guest-5_confgen4.mol2 : confsearch ligand conformer 722
          22          22           1
SMALL
USER_CHARGES
 
@<TRIPOS>ATOM
       1    C1      20.519997   17.949546   22.544692 C.3        1 MOL1        -0.1685
       2    H1      20.519046   18.048920   21.450740 H          1 MOL1         0.0832
       3    H2      20.895055   16.939123   22.757486 H          1 MOL1         0.0832
       4    C2      19.082546   18.045698   23.110506 C.3        1 MOL1        -0.1685
       5    H3      18.522889   17.153713   22.797452 H          1 MOL1         0.0832
       6    H4      19.119601   18.004841   24.207701 H          1 MOL1         0.0832
       7    C3      18.283592   19.294620   22.672103 C.3        1 MOL1        -0.1685
       8    H5      17.314701   19.280352   23.189667 H          1 MOL1         0.0832
       9    H6      18.051943   19.221994   21.600645 H          1 MOL1         0.0832
      10    C4      18.977235   20.648761   22.959054 C.3        1 MOL1        -0.1761
      11    H7      18.229067   21.440561   22.822012 H          1 MOL1         0.0832
      12    H8      19.294526   20.706651   24.008326 H          1 MOL1         0.0832
      13    C5      20.171714   20.918641   22.016709 C.3        1 MOL1         0.1218
      14    H9      19.950066   20.463020   21.040940 H          1 MOL1         0.0789
      15    C6      21.523209   20.359747   22.517105 C.3        1 MOL1        -0.1761
      16    H10     22.203834   20.319382   21.656890 H          1 MOL1         0.0832
      17    H11     21.972060   21.071767   23.222563 H          1 MOL1         0.0832
      18    C7      21.490536   18.965360   23.191390 C.3        1 MOL1        -0.1685
      19    H12     22.508158   18.552277   23.166261 H          1 MOL1         0.0832
      20    H13     21.245214   19.077814   24.256229 H          1 MOL1         0.0832
      21    O1      20.312083   22.323694   21.845415 O.3        1 MOL1        -0.5509
      22    H14     19.471987   22.646029   21.456883 H          1 MOL1         0.3779
@<TRIPOS>BOND
    1     1     2    1
    2     1     3    1
    3     1     4    1
    4     4     5    1
    5     4     6    1
    6     4     7    1
    7     7     8    1
    8     7     9    1
    9     7    10    1
   10    10    11    1
   11    10    12    1
   12    10    13    1
   13    13    14    1
   14    13    15    1
   15    15    16    1
   16    15    17    1
   17     1    18    1
   18    15    18    1
   19    18    19    1
   20    18    20    1
   21    13    21    1
   22    21    22    1
@<TRIPOS>SUBSTRUCTURE
       1 MOL1            1 RESIDUE      1      MOL     
@<SCITEGIC>MOL_PROPERTY
VConf Rank
SciTegic.value.IntegerValue
722

@<SCITEGIC>MOL_PROPERTY
Conf_Id
SciTegic.value.IntegerValue
144

@<SCITEGIC>MOL_PROPERTY
Delta U+W
SciTegic.value.DoubleValue
-3.291

@<SCITEGIC>MOL_PROPERTY
U+W
SciTegic.value.DoubleValue
3.132

@<SCITEGIC>MOL_PROPERTY
Grad RMS
SciTegic.value.DoubleValue
0.000000

@<SCITEGIC>MOL_PROPERTY
U
SciTegic.value.DoubleValue
5.411

@<SCITEGIC>MOL_PROPERTY
W
SciTegic.value.DoubleValue
-2.279

@<SCITEGIC>MOL_PROPERTY
W(PB)
SciTegic.value.DoubleValue
-4.300

@<SCITEGIC>MOL_PROPERTY
W(SA)
SciTegic.value.DoubleValue
2.021

@<SCITEGIC>MOL_PROPERTY
Valence
SciTegic.value.DoubleValue
11.909

@<SCITEGIC>MOL_PROPERTY
Coulomb
SciTegic.value.DoubleValue
-8.733

@<SCITEGIC>MOL_PROPERTY
VdW
SciTegic.value.DoubleValue
2.236

@<SCITEGIC>MOL_PROPERTY
VdW6
SciTegic.value.DoubleValue
-8.936

@<SCITEGIC>MOL_PROPERTY
VdW12
SciTegic.value.DoubleValue
11.172

@<SCITEGIC>MOL_PROPERTY
Bond
SciTegic.value.DoubleValue
0.223

@<SCITEGIC>MOL_PROPERTY
Angle
SciTegic.value.DoubleValue
2.457

@<SCITEGIC>MOL_PROPERTY
Pdih
SciTegic.value.DoubleValue
9.228

@<SCITEGIC>MOL_PROPERTY
Idih
SciTegic.value.DoubleValue
0.000

@<SCITEGIC>MOL_PROPERTY
Tether
SciTegic.value.DoubleValue
0.000

@<TRIPOS>MOLECULE
guest-5_confgen4.mol2 : confsearch ligand conformer 723
          22          22           1
SMALL
USER_CHARGES
 
@<TRIPOS>ATOM
       1    C1      20.561268   21.020593   23.333793 C.3        1 MOL1        -0.1685
       2    H1      21.127232   21.762105   23.914081 H          1 MOL1         0.0832
       3    H2      19.869487   21.593359   22.701289 H          1 MOL1         0.0832
       4    C2      19.785771   20.125424   24.328454 C.3        1 MOL1        -0.1685
       5    H3      20.452969   19.341160   24.711273 H          1 MOL1         0.0832
       6    H4      19.507408   20.726500   25.204936 H          1 MOL1         0.0832
       7    C3      18.496779   19.480705   23.763866 C.3        1 MOL1        -0.1685
       8    H5      17.672579   20.202972   23.840944 H          1 MOL1         0.0832
       9    H6      18.219697   18.641439   24.416458 H          1 MOL1         0.0832
      10    C4      18.563746   18.980089   22.299954 C.3        1 MOL1        -0.1761
      11    H7      17.737441   18.272360   22.148931 H          1 MOL1         0.0832
      12    H8      18.363743   19.820097   21.622252 H          1 MOL1         0.0832
      13    C5      19.897091   18.308533   21.901459 C.3        1 MOL1         0.1218
      14    H9      20.307505   17.764332   22.763941 H          1 MOL1         0.0789
      15    C6      20.941044   19.324491   21.384770 C.3        1 MOL1        -0.1761
      16    H10     21.751630   18.774199   20.888523 H          1 MOL1         0.0832
      17    H11     20.485603   19.956414   20.611250 H          1 MOL1         0.0832
      18    C7      21.572090   20.227757   22.470867 C.3        1 MOL1        -0.1685
      19    H12     22.211045   19.618591   23.124761 H          1 MOL1         0.0832
      20    H13     22.244845   20.941044   21.975478 H          1 MOL1         0.0832
      21    O1      19.635636   17.381792   20.855990 O.3        1 MOL1        -0.5509
      22    H14     19.271465   17.901671   20.110159 H          1 MOL1         0.3779
@<TRIPOS>BOND
    1     1     2    1
    2     1     3    1
    3     1     4    1
    4     4     5    1
    5     4     6    1
    6     4     7    1
    7     7     8    1
    8     7     9    1
    9     7    10    1
   10    10    11    1
   11    10    12    1
   12    10    13    1
   13    13    14    1
   14    13    15    1
   15    15    16    1
   16    15    17    1
   17     1    18    1
   18    15    18    1
   19    18    19    1
   20    18    20    1
   21    13    21    1
   22    21    22    1
@<TRIPOS>SUBSTRUCTURE
       1 MOL1            1 RESIDUE      1      MOL     
@<SCITEGIC>MOL_PROPERTY
VConf Rank
SciTegic.value.IntegerValue
723

@<SCITEGIC>MOL_PROPERTY
Conf_Id
SciTegic.value.IntegerValue
76

@<SCITEGIC>MOL_PROPERTY
Delta U+W
SciTegic.value.DoubleValue
-3.175

@<SCITEGIC>MOL_PROPERTY
U+W
SciTegic.value.DoubleValue
3.248

@<SCITEGIC>MOL_PROPERTY
Grad RMS
SciTegic.value.DoubleValue
0.000000

@<SCITEGIC>MOL_PROPERTY
U
SciTegic.value.DoubleValue
5.336

@<SCITEGIC>MOL_PROPERTY
W
SciTegic.value.DoubleValue
-2.088

@<SCITEGIC>MOL_PROPERTY
W(PB)
SciTegic.value.DoubleValue
-4.098

@<SCITEGIC>MOL_PROPERTY
W(SA)
SciTegic.value.DoubleValue
2.010

@<SCITEGIC>MOL_PROPERTY
Valence
SciTegic.value.DoubleValue
12.390

@<SCITEGIC>MOL_PROPERTY
Coulomb
SciTegic.value.DoubleValue
-9.270

@<SCITEGIC>MOL_PROPERTY
VdW
SciTegic.value.DoubleValue
2.216

@<SCITEGIC>MOL_PROPERTY
VdW6
SciTegic.value.DoubleValue
-8.967

@<SCITEGIC>MOL_PROPERTY
VdW12
SciTegic.value.DoubleValue
11.183

@<SCITEGIC>MOL_PROPERTY
Bond
SciTegic.value.DoubleValue
0.218

@<SCITEGIC>MOL_PROPERTY
Angle
SciTegic.value.DoubleValue
2.426

@<SCITEGIC>MOL_PROPERTY
Pdih
SciTegic.value.DoubleValue
9.745

@<SCITEGIC>MOL_PROPERTY
Idih
SciTegic.value.DoubleValue
0.000

@<SCITEGIC>MOL_PROPERTY
Tether
SciTegic.value.DoubleValue
0.000

@<TRIPOS>MOLECULE
guest-5_confgen4.mol2 : confsearch ligand conformer 724
          22          22           1
SMALL
USER_CHARGES
 
@<TRIPOS>ATOM
       1    C1      21.367461   18.275337   22.256115 C.3        1 MOL1        -0.1685
       2    H1      21.317349   17.192649   22.435161 H          1 MOL1         0.0832
       3    H2      22.298765   18.442373   21.697915 H          1 MOL1         0.0832
       4    C2      21.469097   18.988204   23.625847 C.3        1 MOL1        -0.1685
       5    H3      20.857785   18.452141   24.364369 H          1 MOL1         0.0832
       6    H4      22.504898   18.896552   23.980107 H          1 MOL1         0.0832
       7    C3      21.071848   20.482745   23.616719 C.3        1 MOL1        -0.1685
       8    H5      21.400684   20.971781   22.689602 H          1 MOL1         0.0832
       9    H6      21.609905   20.983624   24.432750 H          1 MOL1         0.0832
      10    C4      19.554976   20.701843   23.847320 C.3        1 MOL1        -0.1761
      11    H7      19.241280   20.143795   24.738773 H          1 MOL1         0.0832
      12    H8      19.386454   21.759829   24.087489 H          1 MOL1         0.0832
      13    C5      18.624134   20.326184   22.671943 C.3        1 MOL1         0.1218
      14    H9      17.595055   20.366003   23.057312 H          1 MOL1         0.0789
      15    C6      18.838056   18.906531   22.089440 C.3        1 MOL1        -0.1761
      16    H10     18.723162   18.157396   22.883464 H          1 MOL1         0.0832
      17    H11     18.022825   18.713377   21.380301 H          1 MOL1         0.0832
      18    C7      20.184721   18.693492   21.350303 C.3        1 MOL1        -0.1685
      19    H12     20.050684   17.912915   20.589280 H          1 MOL1         0.0832
      20    H13     20.455834   19.599521   20.792583 H          1 MOL1         0.0832
      21    O1      18.750228   21.301972   21.642399 O.3        1 MOL1        -0.5509
      22    H14     18.187020   20.999546   20.901036 H          1 MOL1         0.3779
@<TRIPOS>BOND
    1     1     2    1
    2     1     3    1
    3     1     4    1
    4     4     5    1
    5     4     6    1
    6     4     7    1
    7     7     8    1
    8     7     9    1
    9     7    10    1
   10    10    11    1
   11    10    12    1
   12    10    13    1
   13    13    14    1
   14    13    15    1
   15    15    16    1
   16    15    17    1
   17     1    18    1
   18    15    18    1
   19    18    19    1
   20    18    20    1
   21    13    21    1
   22    21    22    1
@<TRIPOS>SUBSTRUCTURE
       1 MOL1            1 RESIDUE      1      MOL     
@<SCITEGIC>MOL_PROPERTY
VConf Rank
SciTegic.value.IntegerValue
724

@<SCITEGIC>MOL_PROPERTY
Conf_Id
SciTegic.value.IntegerValue
95

@<SCITEGIC>MOL_PROPERTY
Delta U+W
SciTegic.value.DoubleValue
-2.289

@<SCITEGIC>MOL_PROPERTY
U+W
SciTegic.value.DoubleValue
4.134

@<SCITEGIC>MOL_PROPERTY
Grad RMS
SciTegic.value.DoubleValue
0.000000

@<SCITEGIC>MOL_PROPERTY
U
SciTegic.value.DoubleValue
6.373

@<SCITEGIC>MOL_PROPERTY
W
SciTegic.value.DoubleValue
-2.240

@<SCITEGIC>MOL_PROPERTY
W(PB)
SciTegic.value.DoubleValue
-4.254

@<SCITEGIC>MOL_PROPERTY
W(SA)
SciTegic.value.DoubleValue
2.015

@<SCITEGIC>MOL_PROPERTY
Valence
SciTegic.value.DoubleValue
12.093

@<SCITEGIC>MOL_PROPERTY
Coulomb
SciTegic.value.DoubleValue
-8.058

@<SCITEGIC>MOL_PROPERTY
VdW
SciTegic.value.DoubleValue
2.339

@<SCITEGIC>MOL_PROPERTY
VdW6
SciTegic.value.DoubleValue
-9.683

@<SCITEGIC>MOL_PROPERTY
VdW12
SciTegic.value.DoubleValue
12.022

@<SCITEGIC>MOL_PROPERTY
Bond
SciTegic.value.DoubleValue
0.268

@<SCITEGIC>MOL_PROPERTY
Angle
SciTegic.value.DoubleValue
3.005

@<SCITEGIC>MOL_PROPERTY
Pdih
SciTegic.value.DoubleValue
8.820

@<SCITEGIC>MOL_PROPERTY
Idih
SciTegic.value.DoubleValue
0.000

@<SCITEGIC>MOL_PROPERTY
Tether
SciTegic.value.DoubleValue
0.000

@<TRIPOS>MOLECULE
guest-5_confgen4.mol2 : confsearch ligand conformer 725
          22          22           1
SMALL
USER_CHARGES
 
@<TRIPOS>ATOM
       1    C1      20.792464   18.260462   23.812534 C.3        1 MOL1        -0.1685
       2    H1      21.849777   18.094274   24.059969 H          1 MOL1         0.0832
       3    H2      20.232802   17.495011   24.367198 H          1 MOL1         0.0832
       4    C2      20.606224   18.016569   22.295906 C.3        1 MOL1        -0.1685
       5    H3      21.495163   18.370569   21.756508 H          1 MOL1         0.0832
       6    H4      20.574252   16.931373   22.128195 H          1 MOL1         0.0832
       7    C3      19.340900   18.657362   21.679581 C.3        1 MOL1        -0.1685
       8    H5      18.492832   18.601137   22.375597 H          1 MOL1         0.0832
       9    H6      19.053493   18.065238   20.800257 H          1 MOL1         0.0832
      10    C4      19.577437   20.115204   21.210479 C.3        1 MOL1        -0.1761
      11    H7      20.480482   20.149723   20.587411 H          1 MOL1         0.0832
      12    H8      18.754171   20.408034   20.546050 H          1 MOL1         0.0832
      13    C5      19.705059   21.178265   22.325535 C.3        1 MOL1         0.1218
      14    H9      20.040111   22.107199   21.841880 H          1 MOL1         0.0789
      15    C6      20.734283   20.847260   23.435249 C.3        1 MOL1        -0.1761
      16    H10     21.725828   20.690197   22.991787 H          1 MOL1         0.0832
      17    H11     20.826796   21.739267   24.068174 H          1 MOL1         0.0832
      18    C7      20.360733   19.647804   24.344758 C.3        1 MOL1        -0.1685
      19    H12     20.827974   19.792144   25.328155 H          1 MOL1         0.0832
      20    H13     19.279376   19.646443   24.535248 H          1 MOL1         0.0832
      21    O1      18.423849   21.415008   22.901164 O.3        1 MOL1        -0.5509
      22    H14     17.812329   21.601272   22.159858 H          1 MOL1         0.3779
@<TRIPOS>BOND
    1     1     2    1
    2     1     3    1
    3     1     4    1
    4     4     5    1
    5     4     6    1
    6     4     7    1
    7     7     8    1
    8     7     9    1
    9     7    10    1
   10    10    11    1
   11    10    12    1
   12    10    13    1
   13    13    14    1
   14    13    15    1
   15    15    16    1
   16    15    17    1
   17     1    18    1
   18    15    18    1
   19    18    19    1
   20    18    20    1
   21    13    21    1
   22    21    22    1
@<TRIPOS>SUBSTRUCTURE
       1 MOL1            1 RESIDUE      1      MOL     
@<SCITEGIC>MOL_PROPERTY
VConf Rank
SciTegic.value.IntegerValue
725

@<SCITEGIC>MOL_PROPERTY
Conf_Id
SciTegic.value.IntegerValue
41

@<SCITEGIC>MOL_PROPERTY
Delta U+W
SciTegic.value.DoubleValue
-2.114

@<SCITEGIC>MOL_PROPERTY
U+W
SciTegic.value.DoubleValue
4.310

@<SCITEGIC>MOL_PROPERTY
Grad RMS
SciTegic.value.DoubleValue
0.000000

@<SCITEGIC>MOL_PROPERTY
U
SciTegic.value.DoubleValue
6.598

@<SCITEGIC>MOL_PROPERTY
W
SciTegic.value.DoubleValue
-2.289

@<SCITEGIC>MOL_PROPERTY
W(PB)
SciTegic.value.DoubleValue
-4.294

@<SCITEGIC>MOL_PROPERTY
W(SA)
SciTegic.value.DoubleValue
2.005

@<SCITEGIC>MOL_PROPERTY
Valence
SciTegic.value.DoubleValue
12.082

@<SCITEGIC>MOL_PROPERTY
Coulomb
SciTegic.value.DoubleValue
-7.801

@<SCITEGIC>MOL_PROPERTY
VdW
SciTegic.value.DoubleValue
2.317

@<SCITEGIC>MOL_PROPERTY
VdW6
SciTegic.value.DoubleValue
-9.658

@<SCITEGIC>MOL_PROPERTY
VdW12
SciTegic.value.DoubleValue
11.975

@<SCITEGIC>MOL_PROPERTY
Bond
SciTegic.value.DoubleValue
0.267

@<SCITEGIC>MOL_PROPERTY
Angle
SciTegic.value.DoubleValue
3.051

@<SCITEGIC>MOL_PROPERTY
Pdih
SciTegic.value.DoubleValue
8.764

@<SCITEGIC>MOL_PROPERTY
Idih
SciTegic.value.DoubleValue
0.000

@<SCITEGIC>MOL_PROPERTY
Tether
SciTegic.value.DoubleValue
0.000

@<TRIPOS>MOLECULE
guest-5_confgen4.mol2 : confsearch ligand conformer 726
          22          22           1
SMALL
USER_CHARGES
 
@<TRIPOS>ATOM
       1    C1      18.841765   19.102113   23.734593 C.3        1 MOL1        -0.1685
       2    H1      17.904397   19.023731   24.301821 H          1 MOL1         0.0832
       3    H2      19.318332   18.113636   23.789131 H          1 MOL1         0.0832
       4    C2      19.721933   20.171644   24.419280 C.3        1 MOL1        -0.1685
       5    H3      19.258773   21.160438   24.299484 H          1 MOL1         0.0832
       6    H4      19.736327   19.974805   25.499838 H          1 MOL1         0.0832
       7    C3      21.181704   20.222216   23.917551 C.3        1 MOL1        -0.1685
       8    H5      21.706656   19.309032   24.228051 H          1 MOL1         0.0832
       9    H6      21.690034   21.044881   24.438079 H          1 MOL1         0.0832
      10    C4      21.346848   20.435825   22.388406 C.3        1 MOL1        -0.1761
      11    H7      20.759376   21.303989   22.063713 H          1 MOL1         0.0832
      12    H8      22.395353   20.700945   22.201505 H          1 MOL1         0.0832
      13    C5      21.018398   19.213522   21.492791 C.3        1 MOL1         0.1218
      14    H9      21.477573   19.408292   20.512740 H          1 MOL1         0.0789
      15    C6      19.512992   18.959034   21.220525 C.3        1 MOL1        -0.1761
      16    H10     19.257691   19.430311   20.262515 H          1 MOL1         0.0832
      17    H11     19.354526   17.883941   21.063887 H          1 MOL1         0.0832
      18    C7      18.494042   19.461659   22.273144 C.3        1 MOL1        -0.1685
      19    H12     18.365000   20.548285   22.178242 H          1 MOL1         0.0832
      20    H13     17.515692   19.026601   22.027716 H          1 MOL1         0.0832
      21    O1      21.616367   18.033062   22.021816 O.3        1 MOL1        -0.5509
      22    H14     21.410111   17.307668   21.397980 H          1 MOL1         0.3779
@<TRIPOS>BOND
    1     1     2    1
    2     1     3    1
    3     1     4    1
    4     4     5    1
    5     4     6    1
    6     4     7    1
    7     7     8    1
    8     7     9    1
    9     7    10    1
   10    10    11    1
   11    10    12    1
   12    10    13    1
   13    13    14    1
   14    13    15    1
   15    15    16    1
   16    15    17    1
   17     1    18    1
   18    15    18    1
   19    18    19    1
   20    18    20    1
   21    13    21    1
   22    21    22    1
@<TRIPOS>SUBSTRUCTURE
       1 MOL1            1 RESIDUE      1      MOL     
@<SCITEGIC>MOL_PROPERTY
VConf Rank
SciTegic.value.IntegerValue
726

@<SCITEGIC>MOL_PROPERTY
Conf_Id
SciTegic.value.IntegerValue
104

@<SCITEGIC>MOL_PROPERTY
Delta U+W
SciTegic.value.DoubleValue
-1.172

@<SCITEGIC>MOL_PROPERTY
U+W
SciTegic.value.DoubleValue
5.252

@<SCITEGIC>MOL_PROPERTY
Grad RMS
SciTegic.value.DoubleValue
0.000000

@<SCITEGIC>MOL_PROPERTY
U
SciTegic.value.DoubleValue
7.482

@<SCITEGIC>MOL_PROPERTY
W
SciTegic.value.DoubleValue
-2.230

@<SCITEGIC>MOL_PROPERTY
W(PB)
SciTegic.value.DoubleValue
-4.220

@<SCITEGIC>MOL_PROPERTY
W(SA)
SciTegic.value.DoubleValue
1.990

@<SCITEGIC>MOL_PROPERTY
Valence
SciTegic.value.DoubleValue
12.309

@<SCITEGIC>MOL_PROPERTY
Coulomb
SciTegic.value.DoubleValue
-7.084

@<SCITEGIC>MOL_PROPERTY
VdW
SciTegic.value.DoubleValue
2.258

@<SCITEGIC>MOL_PROPERTY
VdW6
SciTegic.value.DoubleValue
-9.770

@<SCITEGIC>MOL_PROPERTY
VdW12
SciTegic.value.DoubleValue
12.028

@<SCITEGIC>MOL_PROPERTY
Bond
SciTegic.value.DoubleValue
0.284

@<SCITEGIC>MOL_PROPERTY
Angle
SciTegic.value.DoubleValue
3.491

@<SCITEGIC>MOL_PROPERTY
Pdih
SciTegic.value.DoubleValue
8.535

@<SCITEGIC>MOL_PROPERTY
Idih
SciTegic.value.DoubleValue
0.000

@<SCITEGIC>MOL_PROPERTY
Tether
SciTegic.value.DoubleValue
0.000

@<TRIPOS>MOLECULE
guest-5_confgen4.mol2 : confsearch ligand conformer 727
          22          22           1
SMALL
USER_CHARGES
 
@<TRIPOS>ATOM
       1    C1      19.774290   20.996027   23.467985 C.3        1 MOL1        -0.1685
       2    H1      20.830880   21.295818   23.452880 H          1 MOL1         0.0832
       3    H2      19.242542   21.790400   24.009423 H          1 MOL1         0.0832
       4    C2      19.585164   19.679147   24.255096 C.3        1 MOL1        -0.1685
       5    H3      19.591699   19.909157   25.329481 H          1 MOL1         0.0832
       6    H4      18.582707   19.277763   24.056836 H          1 MOL1         0.0832
       7    C3      20.652933   18.585253   24.000267 C.3        1 MOL1        -0.1685
       8    H5      20.206546   17.605603   24.220132 H          1 MOL1         0.0832
       9    H6      21.459591   18.709175   24.735708 H          1 MOL1         0.0832
      10    C4      21.306281   18.542927   22.592237 C.3        1 MOL1        -0.1761
      11    H7      22.074239   19.324746   22.529355 H          1 MOL1         0.0832
      12    H8      21.852514   17.595180   22.500550 H          1 MOL1         0.0832
      13    C5      20.363585   18.673922   21.373981 C.3        1 MOL1         0.1218
      14    H9      20.885193   18.240071   20.508776 H          1 MOL1         0.0789
      15    C6      20.048007   20.143438   21.014532 C.3        1 MOL1        -0.1761
      16    H10     20.993759   20.676355   20.851394 H          1 MOL1         0.0832
      17    H11     19.531308   20.155353   20.045964 H          1 MOL1         0.0832
      18    C7      19.194445   20.936831   22.034704 C.3        1 MOL1        -0.1685
      19    H12     19.093162   21.964829   21.660977 H          1 MOL1         0.0832
      20    H13     18.174099   20.531086   22.061969 H          1 MOL1         0.0832
      21    O1      19.160094   17.955007   21.595201 O.3        1 MOL1        -0.5509
      22    H14     18.800673   18.339431   22.419411 H          1 MOL1         0.3779
@<TRIPOS>BOND
    1     1     2    1
    2     1     3    1
    3     1     4    1
    4     4     5    1
    5     4     6    1
    6     4     7    1
    7     7     8    1
    8     7     9    1
    9     7    10    1
   10    10    11    1
   11    10    12    1
   12    10    13    1
   13    13    14    1
   14    13    15    1
   15    15    16    1
   16    15    17    1
   17     1    18    1
   18    15    18    1
   19    18    19    1
   20    18    20    1
   21    13    21    1
   22    21    22    1
@<TRIPOS>SUBSTRUCTURE
       1 MOL1            1 RESIDUE      1      MOL     
@<SCITEGIC>MOL_PROPERTY
VConf Rank
SciTegic.value.IntegerValue
727

@<SCITEGIC>MOL_PROPERTY
Conf_Id
SciTegic.value.IntegerValue
99

@<SCITEGIC>MOL_PROPERTY
Delta U+W
SciTegic.value.DoubleValue
-3.852

@<SCITEGIC>MOL_PROPERTY
U+W
SciTegic.value.DoubleValue
2.572

@<SCITEGIC>MOL_PROPERTY
Grad RMS
SciTegic.value.DoubleValue
0.000000

@<SCITEGIC>MOL_PROPERTY
U
SciTegic.value.DoubleValue
3.922

@<SCITEGIC>MOL_PROPERTY
W
SciTegic.value.DoubleValue
-1.350

@<SCITEGIC>MOL_PROPERTY
W(PB)
SciTegic.value.DoubleValue
-3.345

@<SCITEGIC>MOL_PROPERTY
W(SA)
SciTegic.value.DoubleValue
1.995

@<SCITEGIC>MOL_PROPERTY
Valence
SciTegic.value.DoubleValue
12.571

@<SCITEGIC>MOL_PROPERTY
Coulomb
SciTegic.value.DoubleValue
-10.581

@<SCITEGIC>MOL_PROPERTY
VdW
SciTegic.value.DoubleValue
1.932

@<SCITEGIC>MOL_PROPERTY
VdW6
SciTegic.value.DoubleValue
-10.483

@<SCITEGIC>MOL_PROPERTY
VdW12
SciTegic.value.DoubleValue
12.415

@<SCITEGIC>MOL_PROPERTY
Bond
SciTegic.value.DoubleValue
0.268

@<SCITEGIC>MOL_PROPERTY
Angle
SciTegic.value.DoubleValue
3.728

@<SCITEGIC>MOL_PROPERTY
Pdih
SciTegic.value.DoubleValue
8.575

@<SCITEGIC>MOL_PROPERTY
Idih
SciTegic.value.DoubleValue
0.000

@<SCITEGIC>MOL_PROPERTY
Tether
SciTegic.value.DoubleValue
0.000

@<TRIPOS>MOLECULE
guest-5_confgen4.mol2 : confsearch ligand conformer 728
          22          22           1
SMALL
USER_CHARGES
 
@<TRIPOS>ATOM
       1    C1      20.346608   20.639345   21.408148 C.3        1 MOL1        -0.1685
       2    H1      20.147076   20.998605   20.389124 H          1 MOL1         0.0832
       3    H2      21.104471   21.326653   21.807279 H          1 MOL1         0.0832
       4    C2      20.930782   19.200198   21.301148 C.3        1 MOL1        -0.1685
       5    H3      20.984251   18.936616   20.235805 H          1 MOL1         0.0832
       6    H4      21.972567   19.187891   21.648405 H          1 MOL1         0.0832
       7    C3      20.129824   18.086841   22.023403 C.3        1 MOL1        -0.1685
       8    H5      20.531431   17.113166   21.711321 H          1 MOL1         0.0832
       9    H6      19.092880   18.084883   21.665196 H          1 MOL1         0.0832
      10    C4      20.148162   18.132736   23.576589 C.3        1 MOL1        -0.1761
      11    H7      19.273542   17.582194   23.946297 H          1 MOL1         0.0832
      12    H8      21.019068   17.564762   23.930035 H          1 MOL1         0.0832
      13    C5      20.183163   19.518169   24.267609 C.3        1 MOL1         0.1218
      14    H9      19.963716   19.349950   25.331714 H          1 MOL1         0.0789
      15    C6      19.161571   20.564257   23.757515 C.3        1 MOL1        -0.1761
      16    H10     18.170377   20.301246   24.148795 H          1 MOL1         0.0832
      17    H11     19.411904   21.526117   24.224586 H          1 MOL1         0.0832
      18    C7      19.036212   20.781337   22.223904 C.3        1 MOL1        -0.1685
      19    H12     18.271353   20.108895   21.816008 H          1 MOL1         0.0832
      20    H13     18.633186   21.789885   22.059206 H          1 MOL1         0.0832
      21    O1      21.493970   20.055801   24.190277 O.3        1 MOL1        -0.5509
      22    H14     21.639756   20.186356   23.231822 H          1 MOL1         0.3779
@<TRIPOS>BOND
    1     1     2    1
    2     1     3    1
    3     1     4    1
    4     4     5    1
    5     4     6    1
    6     4     7    1
    7     7     8    1
    8     7     9    1
    9     7    10    1
   10    10    11    1
   11    10    12    1
   12    10    13    1
   13    13    14    1
   14    13    15    1
   15    15    16    1
   16    15    17    1
   17     1    18    1
   18    15    18    1
   19    18    19    1
   20    18    20    1
   21    13    21    1
   22    21    22    1
@<TRIPOS>SUBSTRUCTURE
       1 MOL1            1 RESIDUE      1      MOL     
@<SCITEGIC>MOL_PROPERTY
VConf Rank
SciTegic.value.IntegerValue
728

@<SCITEGIC>MOL_PROPERTY
Conf_Id
SciTegic.value.IntegerValue
98

@<SCITEGIC>MOL_PROPERTY
Delta U+W
SciTegic.value.DoubleValue
0.930

@<SCITEGIC>MOL_PROPERTY
U+W
SciTegic.value.DoubleValue
7.353

@<SCITEGIC>MOL_PROPERTY
Grad RMS
SciTegic.value.DoubleValue
0.000000

@<SCITEGIC>MOL_PROPERTY
U
SciTegic.value.DoubleValue
8.455

@<SCITEGIC>MOL_PROPERTY
W
SciTegic.value.DoubleValue
-1.102

@<SCITEGIC>MOL_PROPERTY
W(PB)
SciTegic.value.DoubleValue
-3.101

@<SCITEGIC>MOL_PROPERTY
W(SA)
SciTegic.value.DoubleValue
2.000

@<SCITEGIC>MOL_PROPERTY
Valence
SciTegic.value.DoubleValue
15.601

@<SCITEGIC>MOL_PROPERTY
Coulomb
SciTegic.value.DoubleValue
-10.573

@<SCITEGIC>MOL_PROPERTY
VdW
SciTegic.value.DoubleValue
3.427

@<SCITEGIC>MOL_PROPERTY
VdW6
SciTegic.value.DoubleValue
-11.360

@<SCITEGIC>MOL_PROPERTY
VdW12
SciTegic.value.DoubleValue
14.787

@<SCITEGIC>MOL_PROPERTY
Bond
SciTegic.value.DoubleValue
0.471

@<SCITEGIC>MOL_PROPERTY
Angle
SciTegic.value.DoubleValue
5.445

@<SCITEGIC>MOL_PROPERTY
Pdih
SciTegic.value.DoubleValue
9.685

@<SCITEGIC>MOL_PROPERTY
Idih
SciTegic.value.DoubleValue
0.000

@<SCITEGIC>MOL_PROPERTY
Tether
SciTegic.value.DoubleValue
0.000

@<TRIPOS>MOLECULE
guest-5_confgen4.mol2 : confsearch ligand conformer 729
          22          22           1
SMALL
USER_CHARGES
 
@<TRIPOS>ATOM
       1    C1      21.311816   19.293734   21.552045 C.3        1 MOL1        -0.1685
       2    H1      20.936650   20.166315   21.001924 H          1 MOL1         0.0832
       3    H2      22.223944   18.991597   21.019646 H          1 MOL1         0.0832
       4    C2      20.283564   18.137369   21.464436 C.3        1 MOL1        -0.1685
       5    H3      20.139836   17.902613   20.400901 H          1 MOL1         0.0832
       6    H4      20.710656   17.230698   21.914062 H          1 MOL1         0.0832
       7    C3      18.888475   18.410075   22.092134 C.3        1 MOL1        -0.1685
       8    H5      18.805695   17.900859   23.061083 H          1 MOL1         0.0832
       9    H6      18.128442   17.934824   21.457217 H          1 MOL1         0.0832
      10    C4      18.526564   19.909239   22.263129 C.3        1 MOL1        -0.1761
      11    H7      18.672460   20.426080   21.306460 H          1 MOL1         0.0832
      12    H8      17.448871   19.983394   22.461785 H          1 MOL1         0.0832
      13    C5      19.298462   20.672194   23.379348 C.3        1 MOL1         0.1218
      14    H9      19.636306   21.631884   22.962307 H          1 MOL1         0.0789
      15    C6      20.530265   19.942093   23.970847 C.3        1 MOL1        -0.1761
      16    H10     20.910922   20.520261   24.822832 H          1 MOL1         0.0832
      17    H11     20.220241   18.979588   24.395179 H          1 MOL1         0.0832
      18    C7      21.705322   19.717871   22.986584 C.3        1 MOL1        -0.1685
      19    H12     22.294483   20.642670   22.919867 H          1 MOL1         0.0832
      20    H13     22.378229   18.962117   23.414023 H          1 MOL1         0.0832
      21    O1      18.400175   20.930634   24.452411 O.3        1 MOL1        -0.5509
      22    H14     18.893875   21.459695   25.113118 H          1 MOL1         0.3779
@<TRIPOS>BOND
    1     1     2    1
    2     1     3    1
    3     1     4    1
    4     4     5    1
    5     4     6    1
    6     4     7    1
    7     7     8    1
    8     7     9    1
    9     7    10    1
   10    10    11    1
   11    10    12    1
   12    10    13    1
   13    13    14    1
   14    13    15    1
   15    15    16    1
   16    15    17    1
   17     1    18    1
   18    15    18    1
   19    18    19    1
   20    18    20    1
   21    13    21    1
   22    21    22    1
@<TRIPOS>SUBSTRUCTURE
       1 MOL1            1 RESIDUE      1      MOL     
@<SCITEGIC>MOL_PROPERTY
VConf Rank
SciTegic.value.IntegerValue
729

@<SCITEGIC>MOL_PROPERTY
Conf_Id
SciTegic.value.IntegerValue
141

@<SCITEGIC>MOL_PROPERTY
Delta U+W
SciTegic.value.DoubleValue
0.000

@<SCITEGIC>MOL_PROPERTY
U+W
SciTegic.value.DoubleValue
6.423

@<SCITEGIC>MOL_PROPERTY
Grad RMS
SciTegic.value.DoubleValue
0.000000

@<SCITEGIC>MOL_PROPERTY
U
SciTegic.value.DoubleValue
8.781

@<SCITEGIC>MOL_PROPERTY
W
SciTegic.value.DoubleValue
-2.358

@<SCITEGIC>MOL_PROPERTY
W(PB)
SciTegic.value.DoubleValue
-4.373

@<SCITEGIC>MOL_PROPERTY
W(SA)
SciTegic.value.DoubleValue
2.015

@<SCITEGIC>MOL_PROPERTY
Valence
SciTegic.value.DoubleValue
13.328

@<SCITEGIC>MOL_PROPERTY
Coulomb
SciTegic.value.DoubleValue
-8.387

@<SCITEGIC>MOL_PROPERTY
VdW
SciTegic.value.DoubleValue
3.840

@<SCITEGIC>MOL_PROPERTY
VdW6
SciTegic.value.DoubleValue
-9.744

@<SCITEGIC>MOL_PROPERTY
VdW12
SciTegic.value.DoubleValue
13.584

@<SCITEGIC>MOL_PROPERTY
Bond
SciTegic.value.DoubleValue
0.436

@<SCITEGIC>MOL_PROPERTY
Angle
SciTegic.value.DoubleValue
3.478

@<SCITEGIC>MOL_PROPERTY
Pdih
SciTegic.value.DoubleValue
9.415

@<SCITEGIC>MOL_PROPERTY
Idih
SciTegic.value.DoubleValue
0.000

@<SCITEGIC>MOL_PROPERTY
Tether
SciTegic.value.DoubleValue
0.000

@<TRIPOS>MOLECULE
guest-5_confgen4.mol2 : confsearch ligand conformer 730
          22          22           1
SMALL
USER_CHARGES
 
@<TRIPOS>ATOM
       1    C1      18.388429   18.897695   22.602961 C.3        1 MOL1        -0.1685
       2    H1      17.966465   19.880119   22.854752 H          1 MOL1         0.0832
       3    H2      17.530463   18.228394   22.451854 H          1 MOL1         0.0832
       4    C2      19.221451   18.334932   23.779833 C.3        1 MOL1        -0.1685
       5    H3      18.539457   18.089346   24.605319 H          1 MOL1         0.0832
       6    H4      19.680404   17.383285   23.478819 H          1 MOL1         0.0832
       7    C3      20.316402   19.280962   24.324295 C.3        1 MOL1        -0.1685
       8    H5      20.875855   18.744844   25.103023 H          1 MOL1         0.0832
       9    H6      19.843257   20.134324   24.829139 H          1 MOL1         0.0832
      10    C4      21.318648   19.799868   23.264380 C.3        1 MOL1        -0.1761
      11    H7      22.160714   20.257711   23.799907 H          1 MOL1         0.0832
      12    H8      21.740094   18.965570   22.688771 H          1 MOL1         0.0832
      13    C5      20.695367   20.850219   22.317854 C.3        1 MOL1         0.1218
      14    H9      19.949338   21.425060   22.885165 H          1 MOL1         0.0789
      15    C6      20.003958   20.258424   21.068442 C.3        1 MOL1        -0.1761
      16    H10     19.341067   21.031711   20.659231 H          1 MOL1         0.0832
      17    H11     20.757363   20.066889   20.292680 H          1 MOL1         0.0832
      18    C7      19.184231   18.960711   21.278283 C.3        1 MOL1        -0.1685
      19    H12     18.484935   18.861207   20.436911 H          1 MOL1         0.0832
      20    H13     19.850790   18.090150   21.210964 H          1 MOL1         0.0832
      21    O1      21.718392   21.735118   21.877867 O.3        1 MOL1        -0.5509
      22    H14     22.091978   22.155970   22.680323 H          1 MOL1         0.3779
@<TRIPOS>BOND
    1     1     2    1
    2     1     3    1
    3     1     4    1
    4     4     5    1
    5     4     6    1
    6     4     7    1
    7     7     8    1
    8     7     9    1
    9     7    10    1
   10    10    11    1
   11    10    12    1
   12    10    13    1
   13    13    14    1
   14    13    15    1
   15    15    16    1
   16    15    17    1
   17     1    18    1
   18    15    18    1
   19    18    19    1
   20    18    20    1
   21    13    21    1
   22    21    22    1
@<TRIPOS>SUBSTRUCTURE
       1 MOL1            1 RESIDUE      1      MOL     
@<SCITEGIC>MOL_PROPERTY
VConf Rank
SciTegic.value.IntegerValue
730

@<SCITEGIC>MOL_PROPERTY
Conf_Id
SciTegic.value.IntegerValue
144

@<SCITEGIC>MOL_PROPERTY
Delta U+W
SciTegic.value.DoubleValue
-3.291

@<SCITEGIC>MOL_PROPERTY
U+W
SciTegic.value.DoubleValue
3.132

@<SCITEGIC>MOL_PROPERTY
Grad RMS
SciTegic.value.DoubleValue
0.000000

@<SCITEGIC>MOL_PROPERTY
U
SciTegic.value.DoubleValue
5.411

@<SCITEGIC>MOL_PROPERTY
W
SciTegic.value.DoubleValue
-2.279

@<SCITEGIC>MOL_PROPERTY
W(PB)
SciTegic.value.DoubleValue
-4.300

@<SCITEGIC>MOL_PROPERTY
W(SA)
SciTegic.value.DoubleValue
2.021

@<SCITEGIC>MOL_PROPERTY
Valence
SciTegic.value.DoubleValue
11.909

@<SCITEGIC>MOL_PROPERTY
Coulomb
SciTegic.value.DoubleValue
-8.733

@<SCITEGIC>MOL_PROPERTY
VdW
SciTegic.value.DoubleValue
2.236

@<SCITEGIC>MOL_PROPERTY
VdW6
SciTegic.value.DoubleValue
-8.936

@<SCITEGIC>MOL_PROPERTY
VdW12
SciTegic.value.DoubleValue
11.172

@<SCITEGIC>MOL_PROPERTY
Bond
SciTegic.value.DoubleValue
0.223

@<SCITEGIC>MOL_PROPERTY
Angle
SciTegic.value.DoubleValue
2.457

@<SCITEGIC>MOL_PROPERTY
Pdih
SciTegic.value.DoubleValue
9.228

@<SCITEGIC>MOL_PROPERTY
Idih
SciTegic.value.DoubleValue
0.000

@<SCITEGIC>MOL_PROPERTY
Tether
SciTegic.value.DoubleValue
0.000

@<TRIPOS>MOLECULE
guest-5_confgen4.mol2 : confsearch ligand conformer 731
          22          22           1
SMALL
USER_CHARGES
 
@<TRIPOS>ATOM
       1    C1      19.733455   21.217840   22.218875 C.3        1 MOL1        -0.1685
       2    H1      19.883414   22.243715   21.855580 H          1 MOL1         0.0832
       3    H2      18.695213   21.170113   22.574482 H          1 MOL1         0.0832
       4    C2      20.725433   20.971674   23.379675 C.3        1 MOL1        -0.1685
       5    H3      21.707898   20.700634   22.969708 H          1 MOL1         0.0832
       6    H4      20.883429   21.916034   23.918396 H          1 MOL1         0.0832
       7    C3      20.279817   19.904754   24.408766 C.3        1 MOL1        -0.1685
       8    H5      19.608565   20.373294   25.141437 H          1 MOL1         0.0832
       9    H6      21.164825   19.586049   24.976398 H          1 MOL1         0.0832
      10    C4      19.570331   18.652839   23.836507 C.3        1 MOL1        -0.1761
      11    H7      19.615580   17.863336   24.598811 H          1 MOL1         0.0832
      12    H8      18.503847   18.873830   23.699875 H          1 MOL1         0.0832
      13    C5      20.156152   18.121847   22.508932 C.3        1 MOL1         0.1218
      14    H9      21.244011   18.279630   22.497271 H          1 MOL1         0.0789
      15    C6      19.521356   18.794018   21.270305 C.3        1 MOL1        -0.1761
      16    H10     19.784354   18.208684   20.379043 H          1 MOL1         0.0832
      17    H11     18.427370   18.750115   21.350014 H          1 MOL1         0.0832
      18    C7      19.953526   20.259065   21.024173 C.3        1 MOL1        -0.1685
      19    H12     21.011283   20.281726   20.728266 H          1 MOL1         0.0832
      20    H13     19.393018   20.641573   20.160283 H          1 MOL1         0.0832
      21    O1      19.893697   16.727126   22.430949 O.3        1 MOL1        -0.5509
      22    H14     18.919498   16.627729   22.445680 H          1 MOL1         0.3779
@<TRIPOS>BOND
    1     1     2    1
    2     1     3    1
    3     1     4    1
    4     4     5    1
    5     4     6    1
    6     4     7    1
    7     7     8    1
    8     7     9    1
    9     7    10    1
   10    10    11    1
   11    10    12    1
   12    10    13    1
   13    13    14    1
   14    13    15    1
   15    15    16    1
   16    15    17    1
   17     1    18    1
   18    15    18    1
   19    18    19    1
   20    18    20    1
   21    13    21    1
   22    21    22    1
@<TRIPOS>SUBSTRUCTURE
       1 MOL1            1 RESIDUE      1      MOL     
@<SCITEGIC>MOL_PROPERTY
VConf Rank
SciTegic.value.IntegerValue
731

@<SCITEGIC>MOL_PROPERTY
Conf_Id
SciTegic.value.IntegerValue
76

@<SCITEGIC>MOL_PROPERTY
Delta U+W
SciTegic.value.DoubleValue
-3.175

@<SCITEGIC>MOL_PROPERTY
U+W
SciTegic.value.DoubleValue
3.248

@<SCITEGIC>MOL_PROPERTY
Grad RMS
SciTegic.value.DoubleValue
0.000000

@<SCITEGIC>MOL_PROPERTY
U
SciTegic.value.DoubleValue
5.336

@<SCITEGIC>MOL_PROPERTY
W
SciTegic.value.DoubleValue
-2.088

@<SCITEGIC>MOL_PROPERTY
W(PB)
SciTegic.value.DoubleValue
-4.098

@<SCITEGIC>MOL_PROPERTY
W(SA)
SciTegic.value.DoubleValue
2.010

@<SCITEGIC>MOL_PROPERTY
Valence
SciTegic.value.DoubleValue
12.390

@<SCITEGIC>MOL_PROPERTY
Coulomb
SciTegic.value.DoubleValue
-9.270

@<SCITEGIC>MOL_PROPERTY
VdW
SciTegic.value.DoubleValue
2.216

@<SCITEGIC>MOL_PROPERTY
VdW6
SciTegic.value.DoubleValue
-8.967

@<SCITEGIC>MOL_PROPERTY
VdW12
SciTegic.value.DoubleValue
11.183

@<SCITEGIC>MOL_PROPERTY
Bond
SciTegic.value.DoubleValue
0.218

@<SCITEGIC>MOL_PROPERTY
Angle
SciTegic.value.DoubleValue
2.426

@<SCITEGIC>MOL_PROPERTY
Pdih
SciTegic.value.DoubleValue
9.745

@<SCITEGIC>MOL_PROPERTY
Idih
SciTegic.value.DoubleValue
0.000

@<SCITEGIC>MOL_PROPERTY
Tether
SciTegic.value.DoubleValue
0.000

@<TRIPOS>MOLECULE
guest-5_confgen4.mol2 : confsearch ligand conformer 732
          22          22           1
SMALL
USER_CHARGES
 
@<TRIPOS>ATOM
       1    C1      18.946187   19.317734   24.170837 C.3        1 MOL1        -0.1685
       2    H1      18.804790   20.006030   25.015252 H          1 MOL1         0.0832
       3    H2      18.233347   18.497588   24.332191 H          1 MOL1         0.0832
       4    C2      20.385093   18.752866   24.242594 C.3        1 MOL1        -0.1685
       5    H3      21.068599   19.535030   24.599688 H          1 MOL1         0.0832
       6    H4      20.404737   17.971188   25.014201 H          1 MOL1         0.0832
       7    C3      20.923848   18.164455   22.917808 C.3        1 MOL1        -0.1685
       8    H5      20.129406   17.642586   22.367036 H          1 MOL1         0.0832
       9    H6      21.675277   17.402157   23.163876 H          1 MOL1         0.0832
      10    C4      21.607336   19.229036   22.022492 C.3        1 MOL1        -0.1761
      11    H7      22.344669   19.782007   22.618374 H          1 MOL1         0.0832
      12    H8      22.184628   18.713434   21.243838 H          1 MOL1         0.0832
      13    C5      20.668771   20.241634   21.327626 C.3        1 MOL1         0.1218
      14    H9      21.310334   21.020949   20.891551 H          1 MOL1         0.0789
      15    C6      19.658763   20.953189   22.262539 C.3        1 MOL1        -0.1761
      16    H10     20.197036   21.467495   23.069155 H          1 MOL1         0.0832
      17    H11     19.170496   21.745502   21.680626 H          1 MOL1         0.0832
      18    C7      18.556419   20.039789   22.858990 C.3        1 MOL1        -0.1685
      19    H12     17.664489   20.648037   23.061271 H          1 MOL1         0.0832
      20    H13     18.239125   19.297241   22.115090 H          1 MOL1         0.0832
      21    O1      19.978294   19.590276   20.266025 O.3        1 MOL1        -0.5509
      22    H14     19.360578   20.249586   19.889168 H          1 MOL1         0.3779
@<TRIPOS>BOND
    1     1     2    1
    2     1     3    1
    3     1     4    1
    4     4     5    1
    5     4     6    1
    6     4     7    1
    7     7     8    1
    8     7     9    1
    9     7    10    1
   10    10    11    1
   11    10    12    1
   12    10    13    1
   13    13    14    1
   14    13    15    1
   15    15    16    1
   16    15    17    1
   17     1    18    1
   18    15    18    1
   19    18    19    1
   20    18    20    1
   21    13    21    1
   22    21    22    1
@<TRIPOS>SUBSTRUCTURE
       1 MOL1            1 RESIDUE      1      MOL     
@<SCITEGIC>MOL_PROPERTY
VConf Rank
SciTegic.value.IntegerValue
732

@<SCITEGIC>MOL_PROPERTY
Conf_Id
SciTegic.value.IntegerValue
95

@<SCITEGIC>MOL_PROPERTY
Delta U+W
SciTegic.value.DoubleValue
-2.289

@<SCITEGIC>MOL_PROPERTY
U+W
SciTegic.value.DoubleValue
4.134

@<SCITEGIC>MOL_PROPERTY
Grad RMS
SciTegic.value.DoubleValue
0.000000

@<SCITEGIC>MOL_PROPERTY
U
SciTegic.value.DoubleValue
6.373

@<SCITEGIC>MOL_PROPERTY
W
SciTegic.value.DoubleValue
-2.240

@<SCITEGIC>MOL_PROPERTY
W(PB)
SciTegic.value.DoubleValue
-4.254

@<SCITEGIC>MOL_PROPERTY
W(SA)
SciTegic.value.DoubleValue
2.015

@<SCITEGIC>MOL_PROPERTY
Valence
SciTegic.value.DoubleValue
12.093

@<SCITEGIC>MOL_PROPERTY
Coulomb
SciTegic.value.DoubleValue
-8.058

@<SCITEGIC>MOL_PROPERTY
VdW
SciTegic.value.DoubleValue
2.339

@<SCITEGIC>MOL_PROPERTY
VdW6
SciTegic.value.DoubleValue
-9.683

@<SCITEGIC>MOL_PROPERTY
VdW12
SciTegic.value.DoubleValue
12.022

@<SCITEGIC>MOL_PROPERTY
Bond
SciTegic.value.DoubleValue
0.268

@<SCITEGIC>MOL_PROPERTY
Angle
SciTegic.value.DoubleValue
3.005

@<SCITEGIC>MOL_PROPERTY
Pdih
SciTegic.value.DoubleValue
8.820

@<SCITEGIC>MOL_PROPERTY
Idih
SciTegic.value.DoubleValue
0.000

@<SCITEGIC>MOL_PROPERTY
Tether
SciTegic.value.DoubleValue
0.000

@<TRIPOS>MOLECULE
guest-5_confgen4.mol2 : confsearch ligand conformer 733
          22          22           1
SMALL
USER_CHARGES
 
@<TRIPOS>ATOM
       1    C1      21.229018   18.765878   21.479427 C.3        1 MOL1        -0.1685
       2    H1      22.075690   19.205730   20.934973 H          1 MOL1         0.0832
       3    H2      21.218994   17.702075   21.205543 H          1 MOL1         0.0832
       4    C2      19.927618   19.427465   20.966601 C.3        1 MOL1        -0.1685
       5    H3      20.118113   20.486309   20.745152 H          1 MOL1         0.0832
       6    H4      19.670487   18.967877   20.002514 H          1 MOL1         0.0832
       7    C3      18.714092   19.310692   21.918040 C.3        1 MOL1        -0.1685
       8    H5      18.699085   18.332600   22.417971 H          1 MOL1         0.0832
       9    H6      17.799984   19.356849   21.310832 H          1 MOL1         0.0832
      10    C4      18.652698   20.462996   22.952319 C.3        1 MOL1        -0.1761
      11    H7      18.756303   21.421792   22.428036 H          1 MOL1         0.0832
      12    H8      17.649539   20.481819   23.397628 H          1 MOL1         0.0832
      13    C5      19.692071   20.409586   24.095380 C.3        1 MOL1         0.1218
      14    H9      19.629435   21.370226   24.626744 H          1 MOL1         0.0789
      15    C6      21.162816   20.237763   23.639617 C.3        1 MOL1        -0.1761
      16    H10     21.440841   21.050784   22.956837 H          1 MOL1         0.0832
      17    H11     21.794482   20.363478   24.528449 H          1 MOL1         0.0832
      18    C7      21.499019   18.865522   22.999803 C.3        1 MOL1        -0.1685
      19    H12     22.562463   18.649023   23.168416 H          1 MOL1         0.0832
      20    H13     20.954662   18.067190   23.521302 H          1 MOL1         0.0832
      21    O1      19.338206   19.374285   25.007424 O.3        1 MOL1        -0.5509
      22    H14     18.400720   19.519878   25.248481 H          1 MOL1         0.3779
@<TRIPOS>BOND
    1     1     2    1
    2     1     3    1
    3     1     4    1
    4     4     5    1
    5     4     6    1
    6     4     7    1
    7     7     8    1
    8     7     9    1
    9     7    10    1
   10    10    11    1
   11    10    12    1
   12    10    13    1
   13    13    14    1
   14    13    15    1
   15    15    16    1
   16    15    17    1
   17     1    18    1
   18    15    18    1
   19    18    19    1
   20    18    20    1
   21    13    21    1
   22    21    22    1
@<TRIPOS>SUBSTRUCTURE
       1 MOL1            1 RESIDUE      1      MOL     
@<SCITEGIC>MOL_PROPERTY
VConf Rank
SciTegic.value.IntegerValue
733

@<SCITEGIC>MOL_PROPERTY
Conf_Id
SciTegic.value.IntegerValue
41

@<SCITEGIC>MOL_PROPERTY
Delta U+W
SciTegic.value.DoubleValue
-2.114

@<SCITEGIC>MOL_PROPERTY
U+W
SciTegic.value.DoubleValue
4.310

@<SCITEGIC>MOL_PROPERTY
Grad RMS
SciTegic.value.DoubleValue
0.000000

@<SCITEGIC>MOL_PROPERTY
U
SciTegic.value.DoubleValue
6.598

@<SCITEGIC>MOL_PROPERTY
W
SciTegic.value.DoubleValue
-2.289

@<SCITEGIC>MOL_PROPERTY
W(PB)
SciTegic.value.DoubleValue
-4.294

@<SCITEGIC>MOL_PROPERTY
W(SA)
SciTegic.value.DoubleValue
2.005

@<SCITEGIC>MOL_PROPERTY
Valence
SciTegic.value.DoubleValue
12.082

@<SCITEGIC>MOL_PROPERTY
Coulomb
SciTegic.value.DoubleValue
-7.801

@<SCITEGIC>MOL_PROPERTY
VdW
SciTegic.value.DoubleValue
2.317

@<SCITEGIC>MOL_PROPERTY
VdW6
SciTegic.value.DoubleValue
-9.658

@<SCITEGIC>MOL_PROPERTY
VdW12
SciTegic.value.DoubleValue
11.975

@<SCITEGIC>MOL_PROPERTY
Bond
SciTegic.value.DoubleValue
0.267

@<SCITEGIC>MOL_PROPERTY
Angle
SciTegic.value.DoubleValue
3.051

@<SCITEGIC>MOL_PROPERTY
Pdih
SciTegic.value.DoubleValue
8.764

@<SCITEGIC>MOL_PROPERTY
Idih
SciTegic.value.DoubleValue
0.000

@<SCITEGIC>MOL_PROPERTY
Tether
SciTegic.value.DoubleValue
0.000

@<TRIPOS>MOLECULE
guest-5_confgen4.mol2 : confsearch ligand conformer 734
          22          22           1
SMALL
USER_CHARGES
 
@<TRIPOS>ATOM
       1    C1      19.050295   20.736891   23.232038 C.3        1 MOL1        -0.1685
       2    H1      18.458757   21.460707   23.808859 H          1 MOL1         0.0832
       3    H2      19.058107   21.101757   22.195704 H          1 MOL1         0.0832
       4    C2      18.342553   19.366449   23.323561 C.3        1 MOL1        -0.1685
       5    H3      18.400292   18.991099   24.354270 H          1 MOL1         0.0832
       6    H4      17.273669   19.509008   23.114462 H          1 MOL1         0.0832
       7    C3      18.886200   18.294577   22.353633 C.3        1 MOL1        -0.1685
       8    H5      18.636347   18.575091   21.321754 H          1 MOL1         0.0832
       9    H6      18.342709   17.359388   22.543802 H          1 MOL1         0.0832
      10    C4      20.407687   18.007972   22.472471 C.3        1 MOL1        -0.1761
      11    H7      20.671940   17.803294   23.517715 H          1 MOL1         0.0832
      12    H8      20.613983   17.078086   21.927186 H          1 MOL1         0.0832
      13    C5      21.350428   19.094838   21.894550 C.3        1 MOL1         0.1218
      14    H9      22.333723   18.620866   21.761285 H          1 MOL1         0.0789
      15    C6      21.587900   20.333917   22.796454 C.3        1 MOL1        -0.1761
      16    H10     22.513789   20.168359   23.362476 H          1 MOL1         0.0832
      17    H11     21.791056   21.205598   22.160551 H          1 MOL1         0.0832
      18    C7      20.481312   20.709542   23.812952 C.3        1 MOL1        -0.1685
      19    H12     20.519834   20.029449   24.674580 H          1 MOL1         0.0832
      20    H13     20.716978   21.705054   24.213073 H          1 MOL1         0.0832
      21    O1      20.897513   19.515903   20.610614 O.3        1 MOL1        -0.5509
      22    H14     21.548815   20.167784   20.280816 H          1 MOL1         0.3779
@<TRIPOS>BOND
    1     1     2    1
    2     1     3    1
    3     1     4    1
    4     4     5    1
    5     4     6    1
    6     4     7    1
    7     7     8    1
    8     7     9    1
    9     7    10    1
   10    10    11    1
   11    10    12    1
   12    10    13    1
   13    13    14    1
   14    13    15    1
   15    15    16    1
   16    15    17    1
   17     1    18    1
   18    15    18    1
   19    18    19    1
   20    18    20    1
   21    13    21    1
   22    21    22    1
@<TRIPOS>SUBSTRUCTURE
       1 MOL1            1 RESIDUE      1      MOL     
@<SCITEGIC>MOL_PROPERTY
VConf Rank
SciTegic.value.IntegerValue
734

@<SCITEGIC>MOL_PROPERTY
Conf_Id
SciTegic.value.IntegerValue
104

@<SCITEGIC>MOL_PROPERTY
Delta U+W
SciTegic.value.DoubleValue
-1.172

@<SCITEGIC>MOL_PROPERTY
U+W
SciTegic.value.DoubleValue
5.252

@<SCITEGIC>MOL_PROPERTY
Grad RMS
SciTegic.value.DoubleValue
0.000000

@<SCITEGIC>MOL_PROPERTY
U
SciTegic.value.DoubleValue
7.482

@<SCITEGIC>MOL_PROPERTY
W
SciTegic.value.DoubleValue
-2.230

@<SCITEGIC>MOL_PROPERTY
W(PB)
SciTegic.value.DoubleValue
-4.220

@<SCITEGIC>MOL_PROPERTY
W(SA)
SciTegic.value.DoubleValue
1.990

@<SCITEGIC>MOL_PROPERTY
Valence
SciTegic.value.DoubleValue
12.309

@<SCITEGIC>MOL_PROPERTY
Coulomb
SciTegic.value.DoubleValue
-7.084

@<SCITEGIC>MOL_PROPERTY
VdW
SciTegic.value.DoubleValue
2.258

@<SCITEGIC>MOL_PROPERTY
VdW6
SciTegic.value.DoubleValue
-9.770

@<SCITEGIC>MOL_PROPERTY
VdW12
SciTegic.value.DoubleValue
12.028

@<SCITEGIC>MOL_PROPERTY
Bond
SciTegic.value.DoubleValue
0.284

@<SCITEGIC>MOL_PROPERTY
Angle
SciTegic.value.DoubleValue
3.491

@<SCITEGIC>MOL_PROPERTY
Pdih
SciTegic.value.DoubleValue
8.535

@<SCITEGIC>MOL_PROPERTY
Idih
SciTegic.value.DoubleValue
0.000

@<SCITEGIC>MOL_PROPERTY
Tether
SciTegic.value.DoubleValue
0.000

@<TRIPOS>MOLECULE
guest-5_confgen4.mol2 : confsearch ligand conformer 735
          22          22           1
SMALL
USER_CHARGES
 
@<TRIPOS>ATOM
       1    C1      19.069562   20.750268   23.273615 C.3        1 MOL1        -0.1685
       2    H1      19.874788   21.231247   23.845238 H          1 MOL1         0.0832
       3    H2      18.158657   21.323613   23.493769 H          1 MOL1         0.0832
       4    C2      18.842238   19.298755   23.754155 C.3        1 MOL1        -0.1685
       5    H3      18.246016   19.324474   24.676710 H          1 MOL1         0.0832
       6    H4      18.215081   18.768506   23.025562 H          1 MOL1         0.0832
       7    C3      20.124889   18.478722   24.044025 C.3        1 MOL1        -0.1685
       8    H5      19.888738   17.411717   23.929796 H          1 MOL1         0.0832
       9    H6      20.387262   18.606975   25.103100 H          1 MOL1         0.0832
      10    C4      21.388173   18.813512   23.205435 C.3        1 MOL1        -0.1761
      11    H7      21.859438   19.717742   23.611923 H          1 MOL1         0.0832
      12    H8      22.121302   18.011709   23.362390 H          1 MOL1         0.0832
      13    C5      21.194732   18.996279   21.682557 C.3        1 MOL1         0.1218
      14    H9      22.171626   18.829205   21.206486 H          1 MOL1         0.0789
      15    C6      20.750779   20.426601   21.301305 C.3        1 MOL1        -0.1761
      16    H10     21.481526   21.140404   21.703245 H          1 MOL1         0.0832
      17    H11     20.812083   20.524270   20.209541 H          1 MOL1         0.0832
      18    C7      19.331904   20.853485   21.752253 C.3        1 MOL1        -0.1685
      19    H12     19.181918   21.897881   21.446553 H          1 MOL1         0.0832
      20    H13     18.576792   20.274316   21.203757 H          1 MOL1         0.0832
      21    O1      20.268078   18.046036   21.180042 O.3        1 MOL1        -0.5509
      22    H14     19.458129   18.201803   21.705403 H          1 MOL1         0.3779
@<TRIPOS>BOND
    1     1     2    1
    2     1     3    1
    3     1     4    1
    4     4     5    1
    5     4     6    1
    6     4     7    1
    7     7     8    1
    8     7     9    1
    9     7    10    1
   10    10    11    1
   11    10    12    1
   12    10    13    1
   13    13    14    1
   14    13    15    1
   15    15    16    1
   16    15    17    1
   17     1    18    1
   18    15    18    1
   19    18    19    1
   20    18    20    1
   21    13    21    1
   22    21    22    1
@<TRIPOS>SUBSTRUCTURE
       1 MOL1            1 RESIDUE      1      MOL     
@<SCITEGIC>MOL_PROPERTY
VConf Rank
SciTegic.value.IntegerValue
735

@<SCITEGIC>MOL_PROPERTY
Conf_Id
SciTegic.value.IntegerValue
99

@<SCITEGIC>MOL_PROPERTY
Delta U+W
SciTegic.value.DoubleValue
-3.852

@<SCITEGIC>MOL_PROPERTY
U+W
SciTegic.value.DoubleValue
2.572

@<SCITEGIC>MOL_PROPERTY
Grad RMS
SciTegic.value.DoubleValue
0.000000

@<SCITEGIC>MOL_PROPERTY
U
SciTegic.value.DoubleValue
3.922

@<SCITEGIC>MOL_PROPERTY
W
SciTegic.value.DoubleValue
-1.350

@<SCITEGIC>MOL_PROPERTY
W(PB)
SciTegic.value.DoubleValue
-3.345

@<SCITEGIC>MOL_PROPERTY
W(SA)
SciTegic.value.DoubleValue
1.995

@<SCITEGIC>MOL_PROPERTY
Valence
SciTegic.value.DoubleValue
12.571

@<SCITEGIC>MOL_PROPERTY
Coulomb
SciTegic.value.DoubleValue
-10.581

@<SCITEGIC>MOL_PROPERTY
VdW
SciTegic.value.DoubleValue
1.932

@<SCITEGIC>MOL_PROPERTY
VdW6
SciTegic.value.DoubleValue
-10.483

@<SCITEGIC>MOL_PROPERTY
VdW12
SciTegic.value.DoubleValue
12.415

@<SCITEGIC>MOL_PROPERTY
Bond
SciTegic.value.DoubleValue
0.268

@<SCITEGIC>MOL_PROPERTY
Angle
SciTegic.value.DoubleValue
3.728

@<SCITEGIC>MOL_PROPERTY
Pdih
SciTegic.value.DoubleValue
8.575

@<SCITEGIC>MOL_PROPERTY
Idih
SciTegic.value.DoubleValue
0.000

@<SCITEGIC>MOL_PROPERTY
Tether
SciTegic.value.DoubleValue
0.000

@<TRIPOS>MOLECULE
guest-5_confgen4.mol2 : confsearch ligand conformer 736
          22          22           1
SMALL
USER_CHARGES
 
@<TRIPOS>ATOM
       1    C1      19.982898   21.187994   23.152150 C.3        1 MOL1        -0.1685
       2    H1      20.334228   22.228705   23.124222 H          1 MOL1         0.0832
       3    H2      19.118203   21.199216   23.829079 H          1 MOL1         0.0832
       4    C2      21.123368   20.315080   23.753149 C.3        1 MOL1        -0.1685
       5    H3      21.968265   20.977991   23.985503 H          1 MOL1         0.0832
       6    H4      20.813013   19.901848   24.722155 H          1 MOL1         0.0832
       7    C3      21.653650   19.173800   22.848146 C.3        1 MOL1        -0.1685
       8    H5      22.569047   18.769392   23.301167 H          1 MOL1         0.0832
       9    H6      21.981370   19.586218   21.885815 H          1 MOL1         0.0832
      10    C4      20.679217   17.987764   22.606009 C.3        1 MOL1        -0.1761
      11    H7      20.984750   17.475526   21.684595 H          1 MOL1         0.0832
      12    H8      20.822731   17.251720   23.408280 H          1 MOL1         0.0832
      13    C5      19.163365   18.292062   22.517948 C.3        1 MOL1         0.1218
      14    H9      18.678337   17.387311   22.124317 H          1 MOL1         0.0789
      15    C6      18.752198   19.462438   21.590961 C.3        1 MOL1        -0.1761
      16    H10     18.829741   19.124433   20.549577 H          1 MOL1         0.0832
      17    H11     17.683401   19.654353   21.754787 H          1 MOL1         0.0832
      18    C7      19.518247   20.807999   21.723003 C.3        1 MOL1        -0.1685
      19    H12     20.377212   20.813619   21.040570 H          1 MOL1         0.0832
      20    H13     18.862804   21.605905   21.348216 H          1 MOL1         0.0832
      21    O1      18.645431   18.511863   23.820513 O.3        1 MOL1        -0.5509
      22    H14     19.104396   19.320667   24.124026 H          1 MOL1         0.3779
@<TRIPOS>BOND
    1     1     2    1
    2     1     3    1
    3     1     4    1
    4     4     5    1
    5     4     6    1
    6     4     7    1
    7     7     8    1
    8     7     9    1
    9     7    10    1
   10    10    11    1
   11    10    12    1
   12    10    13    1
   13    13    14    1
   14    13    15    1
   15    15    16    1
   16    15    17    1
   17     1    18    1
   18    15    18    1
   19    18    19    1
   20    18    20    1
   21    13    21    1
   22    21    22    1
@<TRIPOS>SUBSTRUCTURE
       1 MOL1            1 RESIDUE      1      MOL     
@<SCITEGIC>MOL_PROPERTY
VConf Rank
SciTegic.value.IntegerValue
736

@<SCITEGIC>MOL_PROPERTY
Conf_Id
SciTegic.value.IntegerValue
98

@<SCITEGIC>MOL_PROPERTY
Delta U+W
SciTegic.value.DoubleValue
0.930

@<SCITEGIC>MOL_PROPERTY
U+W
SciTegic.value.DoubleValue
7.353

@<SCITEGIC>MOL_PROPERTY
Grad RMS
SciTegic.value.DoubleValue
0.000000

@<SCITEGIC>MOL_PROPERTY
U
SciTegic.value.DoubleValue
8.455

@<SCITEGIC>MOL_PROPERTY
W
SciTegic.value.DoubleValue
-1.102

@<SCITEGIC>MOL_PROPERTY
W(PB)
SciTegic.value.DoubleValue
-3.101

@<SCITEGIC>MOL_PROPERTY
W(SA)
SciTegic.value.DoubleValue
2.000

@<SCITEGIC>MOL_PROPERTY
Valence
SciTegic.value.DoubleValue
15.601

@<SCITEGIC>MOL_PROPERTY
Coulomb
SciTegic.value.DoubleValue
-10.573

@<SCITEGIC>MOL_PROPERTY
VdW
SciTegic.value.DoubleValue
3.427

@<SCITEGIC>MOL_PROPERTY
VdW6
SciTegic.value.DoubleValue
-11.360

@<SCITEGIC>MOL_PROPERTY
VdW12
SciTegic.value.DoubleValue
14.787

@<SCITEGIC>MOL_PROPERTY
Bond
SciTegic.value.DoubleValue
0.471

@<SCITEGIC>MOL_PROPERTY
Angle
SciTegic.value.DoubleValue
5.445

@<SCITEGIC>MOL_PROPERTY
Pdih
SciTegic.value.DoubleValue
9.685

@<SCITEGIC>MOL_PROPERTY
Idih
SciTegic.value.DoubleValue
0.000

@<SCITEGIC>MOL_PROPERTY
Tether
SciTegic.value.DoubleValue
0.000

@<TRIPOS>MOLECULE
guest-5_confgen4.mol2 : confsearch ligand conformer 737
          22          22           1
SMALL
USER_CHARGES
 
@<TRIPOS>ATOM
       1    C1      18.988960   19.000593   21.383975 C.3        1 MOL1        -0.1685
       2    H1      18.831744   20.058489   21.137154 H          1 MOL1         0.0832
       3    H2      18.432212   18.443384   20.618297 H          1 MOL1         0.0832
       4    C2      18.369095   18.688202   22.769738 C.3        1 MOL1        -0.1685
       5    H3      17.298107   18.926467   22.714167 H          1 MOL1         0.0832
       6    H4      18.423898   17.608085   22.962010 H          1 MOL1         0.0832
       7    C3      18.972440   19.453522   23.980071 C.3        1 MOL1        -0.1685
       8    H5      19.634821   18.790889   24.552070 H          1 MOL1         0.0832
       9    H6      18.154964   19.700903   24.670846 H          1 MOL1         0.0832
      10    C4      19.731235   20.758342   23.620370 C.3        1 MOL1        -0.1761
      11    H7      19.086781   21.388744   22.995151 H          1 MOL1         0.0832
      12    H8      19.880748   21.335788   24.542643 H          1 MOL1         0.0832
      13    C5      21.105918   20.572822   22.913474 C.3        1 MOL1         0.1218
      14    H9      21.146501   21.269169   22.063461 H          1 MOL1         0.0789
      15    C6      21.408997   19.148092   22.385700 C.3        1 MOL1        -0.1761
      16    H10     22.444599   19.116215   22.022974 H          1 MOL1         0.0832
      17    H11     21.375448   18.432138   23.215685 H          1 MOL1         0.0832
      18    C7      20.489732   18.654496   21.240658 C.3        1 MOL1        -0.1685
      19    H12     20.848022   19.074730   20.291003 H          1 MOL1         0.0832
      20    H13     20.601309   17.565508   21.149398 H          1 MOL1         0.0832
      21    O1      22.135833   20.914423   23.834212 O.3        1 MOL1        -0.5509
      22    H14     22.983890   20.844802   23.348278 H          1 MOL1         0.3779
@<TRIPOS>BOND
    1     1     2    1
    2     1     3    1
    3     1     4    1
    4     4     5    1
    5     4     6    1
    6     4     7    1
    7     7     8    1
    8     7     9    1
    9     7    10    1
   10    10    11    1
   11    10    12    1
   12    10    13    1
   13    13    14    1
   14    13    15    1
   15    15    16    1
   16    15    17    1
   17     1    18    1
   18    15    18    1
   19    18    19    1
   20    18    20    1
   21    13    21    1
   22    21    22    1
@<TRIPOS>SUBSTRUCTURE
       1 MOL1            1 RESIDUE      1      MOL     
@<SCITEGIC>MOL_PROPERTY
VConf Rank
SciTegic.value.IntegerValue
737

@<SCITEGIC>MOL_PROPERTY
Conf_Id
SciTegic.value.IntegerValue
141

@<SCITEGIC>MOL_PROPERTY
Delta U+W
SciTegic.value.DoubleValue
0.000

@<SCITEGIC>MOL_PROPERTY
U+W
SciTegic.value.DoubleValue
6.423

@<SCITEGIC>MOL_PROPERTY
Grad RMS
SciTegic.value.DoubleValue
0.000000

@<SCITEGIC>MOL_PROPERTY
U
SciTegic.value.DoubleValue
8.781

@<SCITEGIC>MOL_PROPERTY
W
SciTegic.value.DoubleValue
-2.358

@<SCITEGIC>MOL_PROPERTY
W(PB)
SciTegic.value.DoubleValue
-4.373

@<SCITEGIC>MOL_PROPERTY
W(SA)
SciTegic.value.DoubleValue
2.015

@<SCITEGIC>MOL_PROPERTY
Valence
SciTegic.value.DoubleValue
13.328

@<SCITEGIC>MOL_PROPERTY
Coulomb
SciTegic.value.DoubleValue
-8.387

@<SCITEGIC>MOL_PROPERTY
VdW
SciTegic.value.DoubleValue
3.840

@<SCITEGIC>MOL_PROPERTY
VdW6
SciTegic.value.DoubleValue
-9.744

@<SCITEGIC>MOL_PROPERTY
VdW12
SciTegic.value.DoubleValue
13.584

@<SCITEGIC>MOL_PROPERTY
Bond
SciTegic.value.DoubleValue
0.436

@<SCITEGIC>MOL_PROPERTY
Angle
SciTegic.value.DoubleValue
3.478

@<SCITEGIC>MOL_PROPERTY
Pdih
SciTegic.value.DoubleValue
9.415

@<SCITEGIC>MOL_PROPERTY
Idih
SciTegic.value.DoubleValue
0.000

@<SCITEGIC>MOL_PROPERTY
Tether
SciTegic.value.DoubleValue
0.000

@<TRIPOS>MOLECULE
guest-5_confgen4.mol2 : confsearch ligand conformer 738
          22          22           1
SMALL
USER_CHARGES
 
@<TRIPOS>ATOM
       1    C1      18.519618   19.882603   21.742783 C.3        1 MOL1        -0.1685
       2    H1      18.649091   18.891998   21.286114 H          1 MOL1         0.0832
       3    H2      17.573846   20.277887   21.347598 H          1 MOL1         0.0832
       4    C2      19.650000   20.845495   21.306057 C.3        1 MOL1        -0.1685
       5    H3      19.528313   21.065792   20.236703 H          1 MOL1         0.0832
       6    H4      19.530011   21.806722   21.824251 H          1 MOL1         0.0832
       7    C3      21.086750   20.320033   21.529596 C.3        1 MOL1        -0.1685
       8    H5      21.790035   21.114828   21.245838 H          1 MOL1         0.0832
       9    H6      21.282005   19.487138   20.840307 H          1 MOL1         0.0832
      10    C4      21.402385   19.875021   22.978568 C.3        1 MOL1        -0.1761
      11    H7      22.490233   19.749257   23.057654 H          1 MOL1         0.0832
      12    H8      21.133343   20.663662   23.693172 H          1 MOL1         0.0832
      13    C5      20.714647   18.544078   23.357029 C.3        1 MOL1         0.1218
      14    H9      20.651903   17.920134   22.453923 H          1 MOL1         0.0789
      15    C6      19.291036   18.699810   23.938730 C.3        1 MOL1        -0.1761
      16    H10     18.794445   17.723700   23.864866 H          1 MOL1         0.0832
      17    H11     19.359371   18.921988   25.012078 H          1 MOL1         0.0832
      18    C7      18.385281   19.769845   23.279429 C.3        1 MOL1        -0.1685
      19    H12     17.342284   19.532711   23.529925 H          1 MOL1         0.0832
      20    H13     18.581765   20.749452   23.736021 H          1 MOL1         0.0832
      21    O1      21.514583   17.873278   24.323129 O.3        1 MOL1        -0.5509
      22    H14     22.388114   17.717075   23.907001 H          1 MOL1         0.3779
@<TRIPOS>BOND
    1     1     2    1
    2     1     3    1
    3     1     4    1
    4     4     5    1
    5     4     6    1
    6     4     7    1
    7     7     8    1
    8     7     9    1
    9     7    10    1
   10    10    11    1
   11    10    12    1
   12    10    13    1
   13    13    14    1
   14    13    15    1
   15    15    16    1
   16    15    17    1
   17     1    18    1
   18    15    18    1
   19    18    19    1
   20    18    20    1
   21    13    21    1
   22    21    22    1
@<TRIPOS>SUBSTRUCTURE
       1 MOL1            1 RESIDUE      1      MOL     
@<SCITEGIC>MOL_PROPERTY
VConf Rank
SciTegic.value.IntegerValue
738

@<SCITEGIC>MOL_PROPERTY
Conf_Id
SciTegic.value.IntegerValue
144

@<SCITEGIC>MOL_PROPERTY
Delta U+W
SciTegic.value.DoubleValue
-3.291

@<SCITEGIC>MOL_PROPERTY
U+W
SciTegic.value.DoubleValue
3.132

@<SCITEGIC>MOL_PROPERTY
Grad RMS
SciTegic.value.DoubleValue
0.000000

@<SCITEGIC>MOL_PROPERTY
U
SciTegic.value.DoubleValue
5.411

@<SCITEGIC>MOL_PROPERTY
W
SciTegic.value.DoubleValue
-2.279

@<SCITEGIC>MOL_PROPERTY
W(PB)
SciTegic.value.DoubleValue
-4.300

@<SCITEGIC>MOL_PROPERTY
W(SA)
SciTegic.value.DoubleValue
2.021

@<SCITEGIC>MOL_PROPERTY
Valence
SciTegic.value.DoubleValue
11.909

@<SCITEGIC>MOL_PROPERTY
Coulomb
SciTegic.value.DoubleValue
-8.733

@<SCITEGIC>MOL_PROPERTY
VdW
SciTegic.value.DoubleValue
2.236

@<SCITEGIC>MOL_PROPERTY
VdW6
SciTegic.value.DoubleValue
-8.936

@<SCITEGIC>MOL_PROPERTY
VdW12
SciTegic.value.DoubleValue
11.172

@<SCITEGIC>MOL_PROPERTY
Bond
SciTegic.value.DoubleValue
0.223

@<SCITEGIC>MOL_PROPERTY
Angle
SciTegic.value.DoubleValue
2.457

@<SCITEGIC>MOL_PROPERTY
Pdih
SciTegic.value.DoubleValue
9.228

@<SCITEGIC>MOL_PROPERTY
Idih
SciTegic.value.DoubleValue
0.000

@<SCITEGIC>MOL_PROPERTY
Tether
SciTegic.value.DoubleValue
0.000

@<TRIPOS>MOLECULE
guest-5_confgen4.mol2 : confsearch ligand conformer 739
          22          22           1
SMALL
USER_CHARGES
 
@<TRIPOS>ATOM
       1    C1      18.825628   18.226327   22.612710 C.3        1 MOL1        -0.1685
       2    H1      18.368606   17.227346   22.605034 H          1 MOL1         0.0832
       3    H2      17.993371   18.941636   22.564100 H          1 MOL1         0.0832
       4    C2      19.730492   18.347981   21.364312 C.3        1 MOL1        -0.1685
       5    H3      20.703867   17.882847   21.571594 H          1 MOL1         0.0832
       6    H4      19.291648   17.757429   20.548430 H          1 MOL1         0.0832
       7    C3      19.944162   19.790988   20.846627 C.3        1 MOL1        -0.1685
       8    H5      19.097364   20.069378   20.204484 H          1 MOL1         0.0832
       9    H6      20.827208   19.792888   20.192987 H          1 MOL1         0.0832
      10    C4      20.112957   20.889491   21.925023 C.3        1 MOL1        -0.1761
      11    H7      20.576551   21.762274   21.445648 H          1 MOL1         0.0832
      12    H8      19.121616   21.223930   22.257121 H          1 MOL1         0.0832
      13    C5      20.949718   20.471789   23.155044 C.3        1 MOL1         0.1218
      14    H9      21.745179   19.780708   22.841807 H          1 MOL1         0.0789
      15    C6      20.092459   19.810079   24.257870 C.3        1 MOL1        -0.1761
      16    H10     20.680466   19.771445   25.184631 H          1 MOL1         0.0832
      17    H11     19.223442   20.444260   24.476297 H          1 MOL1         0.0832
      18    C7      19.606664   18.375892   23.940341 C.3        1 MOL1        -0.1685
      19    H12     20.466970   17.692677   23.936449 H          1 MOL1         0.0832
      20    H13     18.962747   18.041307   24.765091 H          1 MOL1         0.0832
      21    O1      21.545860   21.638128   23.706838 O.3        1 MOL1        -0.5509
      22    H14     20.809098   22.226828   23.970989 H          1 MOL1         0.3779
@<TRIPOS>BOND
    1     1     2    1
    2     1     3    1
    3     1     4    1
    4     4     5    1
    5     4     6    1
    6     4     7    1
    7     7     8    1
    8     7     9    1
    9     7    10    1
   10    10    11    1
   11    10    12    1
   12    10    13    1
   13    13    14    1
   14    13    15    1
   15    15    16    1
   16    15    17    1
   17     1    18    1
   18    15    18    1
   19    18    19    1
   20    18    20    1
   21    13    21    1
   22    21    22    1
@<TRIPOS>SUBSTRUCTURE
       1 MOL1            1 RESIDUE      1      MOL     
@<SCITEGIC>MOL_PROPERTY
VConf Rank
SciTegic.value.IntegerValue
739

@<SCITEGIC>MOL_PROPERTY
Conf_Id
SciTegic.value.IntegerValue
76

@<SCITEGIC>MOL_PROPERTY
Delta U+W
SciTegic.value.DoubleValue
-3.175

@<SCITEGIC>MOL_PROPERTY
U+W
SciTegic.value.DoubleValue
3.248

@<SCITEGIC>MOL_PROPERTY
Grad RMS
SciTegic.value.DoubleValue
0.000000

@<SCITEGIC>MOL_PROPERTY
U
SciTegic.value.DoubleValue
5.336

@<SCITEGIC>MOL_PROPERTY
W
SciTegic.value.DoubleValue
-2.088

@<SCITEGIC>MOL_PROPERTY
W(PB)
SciTegic.value.DoubleValue
-4.098

@<SCITEGIC>MOL_PROPERTY
W(SA)
SciTegic.value.DoubleValue
2.010

@<SCITEGIC>MOL_PROPERTY
Valence
SciTegic.value.DoubleValue
12.390

@<SCITEGIC>MOL_PROPERTY
Coulomb
SciTegic.value.DoubleValue
-9.270

@<SCITEGIC>MOL_PROPERTY
VdW
SciTegic.value.DoubleValue
2.216

@<SCITEGIC>MOL_PROPERTY
VdW6
SciTegic.value.DoubleValue
-8.967

@<SCITEGIC>MOL_PROPERTY
VdW12
SciTegic.value.DoubleValue
11.183

@<SCITEGIC>MOL_PROPERTY
Bond
SciTegic.value.DoubleValue
0.218

@<SCITEGIC>MOL_PROPERTY
Angle
SciTegic.value.DoubleValue
2.426

@<SCITEGIC>MOL_PROPERTY
Pdih
SciTegic.value.DoubleValue
9.745

@<SCITEGIC>MOL_PROPERTY
Idih
SciTegic.value.DoubleValue
0.000

@<SCITEGIC>MOL_PROPERTY
Tether
SciTegic.value.DoubleValue
0.000

@<TRIPOS>MOLECULE
guest-5_confgen4.mol2 : confsearch ligand conformer 740
          22          22           1
SMALL
USER_CHARGES
 
@<TRIPOS>ATOM
       1    C1      21.235114   18.485269   21.684312 C.3        1 MOL1        -0.1685
       2    H1      22.130606   18.809621   21.136889 H          1 MOL1         0.0832
       3    H2      21.209043   17.390959   21.591463 H          1 MOL1         0.0832
       4    C2      19.993622   19.078325   20.976035 C.3        1 MOL1        -0.1685
       5    H3      20.230526   20.083269   20.601277 H          1 MOL1         0.0832
       6    H4      19.790718   18.472146   20.082636 H          1 MOL1         0.0832
       7    C3      18.713820   19.140640   21.841925 C.3        1 MOL1        -0.1685
       8    H5      18.636313   18.259765   22.493758 H          1 MOL1         0.0832
       9    H6      17.845529   19.100178   21.170564 H          1 MOL1         0.0832
      10    C4      18.611193   20.448120   22.667785 C.3        1 MOL1        -0.1761
      11    H7      18.763804   21.307779   22.002798 H          1 MOL1         0.0832
      12    H8      17.584279   20.545112   23.043888 H          1 MOL1         0.0832
      13    C5      19.572947   20.573065   23.871328 C.3        1 MOL1         0.1218
      14    H9      19.501496   21.610805   24.227822 H          1 MOL1         0.0789
      15    C6      21.064968   20.301974   23.553726 C.3        1 MOL1        -0.1761
      16    H10     21.405038   20.978457   22.758992 H          1 MOL1         0.0832
      17    H11     21.647537   20.574171   24.443283 H          1 MOL1         0.0832
      18    C7      21.403666   18.834850   23.182180 C.3        1 MOL1        -0.1685
      19    H12     22.446549   18.631420   23.460448 H          1 MOL1         0.0832
      20    H13     20.801528   18.144347   23.787221 H          1 MOL1         0.0832
      21    O1      19.130942   19.713444   24.917132 O.3        1 MOL1        -0.5509
      22    H14     19.792982   19.784094   25.634763 H          1 MOL1         0.3779
@<TRIPOS>BOND
    1     1     2    1
    2     1     3    1
    3     1     4    1
    4     4     5    1
    5     4     6    1
    6     4     7    1
    7     7     8    1
    8     7     9    1
    9     7    10    1
   10    10    11    1
   11    10    12    1
   12    10    13    1
   13    13    14    1
   14    13    15    1
   15    15    16    1
   16    15    17    1
   17     1    18    1
   18    15    18    1
   19    18    19    1
   20    18    20    1
   21    13    21    1
   22    21    22    1
@<TRIPOS>SUBSTRUCTURE
       1 MOL1            1 RESIDUE      1      MOL     
@<SCITEGIC>MOL_PROPERTY
VConf Rank
SciTegic.value.IntegerValue
740

@<SCITEGIC>MOL_PROPERTY
Conf_Id
SciTegic.value.IntegerValue
95

@<SCITEGIC>MOL_PROPERTY
Delta U+W
SciTegic.value.DoubleValue
-2.289

@<SCITEGIC>MOL_PROPERTY
U+W
SciTegic.value.DoubleValue
4.134

@<SCITEGIC>MOL_PROPERTY
Grad RMS
SciTegic.value.DoubleValue
0.000000

@<SCITEGIC>MOL_PROPERTY
U
SciTegic.value.DoubleValue
6.373

@<SCITEGIC>MOL_PROPERTY
W
SciTegic.value.DoubleValue
-2.240

@<SCITEGIC>MOL_PROPERTY
W(PB)
SciTegic.value.DoubleValue
-4.254

@<SCITEGIC>MOL_PROPERTY
W(SA)
SciTegic.value.DoubleValue
2.015

@<SCITEGIC>MOL_PROPERTY
Valence
SciTegic.value.DoubleValue
12.093

@<SCITEGIC>MOL_PROPERTY
Coulomb
SciTegic.value.DoubleValue
-8.058

@<SCITEGIC>MOL_PROPERTY
VdW
SciTegic.value.DoubleValue
2.339

@<SCITEGIC>MOL_PROPERTY
VdW6
SciTegic.value.DoubleValue
-9.683

@<SCITEGIC>MOL_PROPERTY
VdW12
SciTegic.value.DoubleValue
12.022

@<SCITEGIC>MOL_PROPERTY
Bond
SciTegic.value.DoubleValue
0.268

@<SCITEGIC>MOL_PROPERTY
Angle
SciTegic.value.DoubleValue
3.005

@<SCITEGIC>MOL_PROPERTY
Pdih
SciTegic.value.DoubleValue
8.820

@<SCITEGIC>MOL_PROPERTY
Idih
SciTegic.value.DoubleValue
0.000

@<SCITEGIC>MOL_PROPERTY
Tether
SciTegic.value.DoubleValue
0.000

@<TRIPOS>MOLECULE
guest-5_confgen4.mol2 : confsearch ligand conformer 741
          22          22           1
SMALL
USER_CHARGES
 
@<TRIPOS>ATOM
       1    C1      19.430091   18.024762   21.868439 C.3        1 MOL1        -0.1685
       2    H1      18.595417   17.907801   21.163887 H          1 MOL1         0.0832
       3    H2      19.876889   17.026280   21.969409 H          1 MOL1         0.0832
       4    C2      18.851222   18.455294   23.237337 C.3        1 MOL1        -0.1685
       5    H3      17.995812   19.125724   23.078348 H          1 MOL1         0.0832
       6    H4      18.437478   17.562939   23.726538 H          1 MOL1         0.0832
       7    C3      19.862491   19.128933   24.193927 C.3        1 MOL1        -0.1685
       8    H5      20.852115   18.658647   24.114590 H          1 MOL1         0.0832
       9    H6      19.523977   18.955091   25.224273 H          1 MOL1         0.0832
      10    C4      19.957871   20.660784   23.980283 C.3        1 MOL1        -0.1761
      11    H7      18.946236   21.086802   23.979803 H          1 MOL1         0.0832
      12    H8      20.460483   21.105659   24.848874 H          1 MOL1         0.0832
      13    C5      20.691270   21.126742   22.701712 C.3        1 MOL1         0.1218
      14    H9      20.518416   22.209030   22.612986 H          1 MOL1         0.0789
      15    C6      20.194776   20.478130   21.385228 C.3        1 MOL1        -0.1761
      16    H10     19.121259   20.666445   21.256443 H          1 MOL1         0.0832
      17    H11     20.692246   21.001205   20.558339 H          1 MOL1         0.0832
      18    C7      20.491048   18.962296   21.244122 C.3        1 MOL1        -0.1685
      19    H12     20.571820   18.716761   20.176692 H          1 MOL1         0.0832
      20    H13     21.477190   18.733599   21.669376 H          1 MOL1         0.0832
      21    O1      22.090998   20.912226   22.855465 O.3        1 MOL1        -0.5509
      22    H14     22.347230   21.324664   23.705421 H          1 MOL1         0.3779
@<TRIPOS>BOND
    1     1     2    1
    2     1     3    1
    3     1     4    1
    4     4     5    1
    5     4     6    1
    6     4     7    1
    7     7     8    1
    8     7     9    1
    9     7    10    1
   10    10    11    1
   11    10    12    1
   12    10    13    1
   13    13    14    1
   14    13    15    1
   15    15    16    1
   16    15    17    1
   17     1    18    1
   18    15    18    1
   19    18    19    1
   20    18    20    1
   21    13    21    1
   22    21    22    1
@<TRIPOS>SUBSTRUCTURE
       1 MOL1            1 RESIDUE      1      MOL     
@<SCITEGIC>MOL_PROPERTY
VConf Rank
SciTegic.value.IntegerValue
741

@<SCITEGIC>MOL_PROPERTY
Conf_Id
SciTegic.value.IntegerValue
41

@<SCITEGIC>MOL_PROPERTY
Delta U+W
SciTegic.value.DoubleValue
-2.114

@<SCITEGIC>MOL_PROPERTY
U+W
SciTegic.value.DoubleValue
4.310

@<SCITEGIC>MOL_PROPERTY
Grad RMS
SciTegic.value.DoubleValue
0.000000

@<SCITEGIC>MOL_PROPERTY
U
SciTegic.value.DoubleValue
6.598

@<SCITEGIC>MOL_PROPERTY
W
SciTegic.value.DoubleValue
-2.289

@<SCITEGIC>MOL_PROPERTY
W(PB)
SciTegic.value.DoubleValue
-4.294

@<SCITEGIC>MOL_PROPERTY
W(SA)
SciTegic.value.DoubleValue
2.005

@<SCITEGIC>MOL_PROPERTY
Valence
SciTegic.value.DoubleValue
12.082

@<SCITEGIC>MOL_PROPERTY
Coulomb
SciTegic.value.DoubleValue
-7.801

@<SCITEGIC>MOL_PROPERTY
VdW
SciTegic.value.DoubleValue
2.317

@<SCITEGIC>MOL_PROPERTY
VdW6
SciTegic.value.DoubleValue
-9.658

@<SCITEGIC>MOL_PROPERTY
VdW12
SciTegic.value.DoubleValue
11.975

@<SCITEGIC>MOL_PROPERTY
Bond
SciTegic.value.DoubleValue
0.267

@<SCITEGIC>MOL_PROPERTY
Angle
SciTegic.value.DoubleValue
3.051

@<SCITEGIC>MOL_PROPERTY
Pdih
SciTegic.value.DoubleValue
8.764

@<SCITEGIC>MOL_PROPERTY
Idih
SciTegic.value.DoubleValue
0.000

@<SCITEGIC>MOL_PROPERTY
Tether
SciTegic.value.DoubleValue
0.000

@<TRIPOS>MOLECULE
guest-5_confgen4.mol2 : confsearch ligand conformer 742
          22          22           1
SMALL
USER_CHARGES
 
@<TRIPOS>ATOM
       1    C1      18.612152   18.767204   22.609040 C.3        1 MOL1        -0.1685
       2    H1      17.563000   18.488718   22.440886 H          1 MOL1         0.0832
       3    H2      19.170991   17.825090   22.694454 H          1 MOL1         0.0832
       4    C2      18.684394   19.567029   23.929058 C.3        1 MOL1        -0.1685
       5    H3      18.173494   20.531222   23.802990 H          1 MOL1         0.0832
       6    H4      18.118811   19.024987   24.699036 H          1 MOL1         0.0832
       7    C3      20.114909   19.807327   24.459252 C.3        1 MOL1        -0.1685
       8    H5      20.548998   18.852717   24.785098 H          1 MOL1         0.0832
       9    H6      20.040661   20.421435   25.366712 H          1 MOL1         0.0832
      10    C4      21.075943   20.516531   23.466967 C.3        1 MOL1        -0.1761
      11    H7      20.610295   21.432176   23.080930 H          1 MOL1         0.0832
      12    H8      21.954585   20.847833   24.035130 H          1 MOL1         0.0832
      13    C5      21.593685   19.652326   22.288355 C.3        1 MOL1         0.1218
      14    H9      22.476406   20.168020   21.883211 H          1 MOL1         0.0789
      15    C6      20.614843   19.474102   21.098715 C.3        1 MOL1        -0.1761
      16    H10     20.860503   20.230268   20.341796 H          1 MOL1         0.0832
      17    H11     20.811517   18.508159   20.615242 H          1 MOL1         0.0832
      18    C7      19.097497   19.582315   21.390002 C.3        1 MOL1        -0.1685
      19    H12     18.815289   20.636816   21.511664 H          1 MOL1         0.0832
      20    H13     18.558843   19.234567   20.498038 H          1 MOL1         0.0832
      21    O1      22.017920   18.374706   22.755936 O.3        1 MOL1        -0.5509
      22    H14     22.369150   17.892081   21.980294 H          1 MOL1         0.3779
@<TRIPOS>BOND
    1     1     2    1
    2     1     3    1
    3     1     4    1
    4     4     5    1
    5     4     6    1
    6     4     7    1
    7     7     8    1
    8     7     9    1
    9     7    10    1
   10    10    11    1
   11    10    12    1
   12    10    13    1
   13    13    14    1
   14    13    15    1
   15    15    16    1
   16    15    17    1
   17     1    18    1
   18    15    18    1
   19    18    19    1
   20    18    20    1
   21    13    21    1
   22    21    22    1
@<TRIPOS>SUBSTRUCTURE
       1 MOL1            1 RESIDUE      1      MOL     
@<SCITEGIC>MOL_PROPERTY
VConf Rank
SciTegic.value.IntegerValue
742

@<SCITEGIC>MOL_PROPERTY
Conf_Id
SciTegic.value.IntegerValue
104

@<SCITEGIC>MOL_PROPERTY
Delta U+W
SciTegic.value.DoubleValue
-1.172

@<SCITEGIC>MOL_PROPERTY
U+W
SciTegic.value.DoubleValue
5.252

@<SCITEGIC>MOL_PROPERTY
Grad RMS
SciTegic.value.DoubleValue
0.000000

@<SCITEGIC>MOL_PROPERTY
U
SciTegic.value.DoubleValue
7.482

@<SCITEGIC>MOL_PROPERTY
W
SciTegic.value.DoubleValue
-2.230

@<SCITEGIC>MOL_PROPERTY
W(PB)
SciTegic.value.DoubleValue
-4.220

@<SCITEGIC>MOL_PROPERTY
W(SA)
SciTegic.value.DoubleValue
1.990

@<SCITEGIC>MOL_PROPERTY
Valence
SciTegic.value.DoubleValue
12.309

@<SCITEGIC>MOL_PROPERTY
Coulomb
SciTegic.value.DoubleValue
-7.084

@<SCITEGIC>MOL_PROPERTY
VdW
SciTegic.value.DoubleValue
2.258

@<SCITEGIC>MOL_PROPERTY
VdW6
SciTegic.value.DoubleValue
-9.770

@<SCITEGIC>MOL_PROPERTY
VdW12
SciTegic.value.DoubleValue
12.028

@<SCITEGIC>MOL_PROPERTY
Bond
SciTegic.value.DoubleValue
0.284

@<SCITEGIC>MOL_PROPERTY
Angle
SciTegic.value.DoubleValue
3.491

@<SCITEGIC>MOL_PROPERTY
Pdih
SciTegic.value.DoubleValue
8.535

@<SCITEGIC>MOL_PROPERTY
Idih
SciTegic.value.DoubleValue
0.000

@<SCITEGIC>MOL_PROPERTY
Tether
SciTegic.value.DoubleValue
0.000

@<TRIPOS>MOLECULE
guest-5_confgen4.mol2 : confsearch ligand conformer 743
          22          22           1
SMALL
USER_CHARGES
 
@<TRIPOS>ATOM
       1    C1      18.582381   19.030467   23.117139 C.3        1 MOL1        -0.1685
       2    H1      18.453745   19.804054   23.886229 H          1 MOL1         0.0832
       3    H2      17.683542   18.400878   23.168559 H          1 MOL1         0.0832
       4    C2      19.803999   18.137001   23.431551 C.3        1 MOL1        -0.1685
       5    H3      19.514357   17.404421   24.197503 H          1 MOL1         0.0832
       6    H4      20.053984   17.538056   22.546052 H          1 MOL1         0.0832
       7    C3      21.065261   18.879181   23.941512 C.3        1 MOL1        -0.1685
       8    H5      21.947776   18.269706   23.702720 H          1 MOL1         0.0832
       9    H6      21.026071   18.917221   25.038756 H          1 MOL1         0.0832
      10    C4      21.293409   20.327891   23.431226 C.3        1 MOL1        -0.1761
      11    H7      20.647092   21.012911   23.995122 H          1 MOL1         0.0832
      12    H8      22.318957   20.620952   23.690777 H          1 MOL1         0.0832
      13    C5      21.088660   20.583003   21.920274 C.3        1 MOL1         0.1218
      14    H9      21.649773   21.492954   21.663325 H          1 MOL1         0.0789
      15    C6      19.611839   20.849720   21.551318 C.3        1 MOL1        -0.1761
      16    H10     19.244784   21.689745   22.155213 H          1 MOL1         0.0832
      17    H11     19.576548   21.196602   20.510322 H          1 MOL1         0.0832
      18    C7      18.634921   19.657569   21.703632 C.3        1 MOL1        -0.1685
      19    H12     17.627858   20.013109   21.446483 H          1 MOL1         0.0832
      20    H13     18.872976   18.883792   20.961285 H          1 MOL1         0.0832
      21    O1      21.595121   19.498085   21.158290 O.3        1 MOL1        -0.5509
      22    H14     21.110653   18.720202   21.499572 H          1 MOL1         0.3779
@<TRIPOS>BOND
    1     1     2    1
    2     1     3    1
    3     1     4    1
    4     4     5    1
    5     4     6    1
    6     4     7    1
    7     7     8    1
    8     7     9    1
    9     7    10    1
   10    10    11    1
   11    10    12    1
   12    10    13    1
   13    13    14    1
   14    13    15    1
   15    15    16    1
   16    15    17    1
   17     1    18    1
   18    15    18    1
   19    18    19    1
   20    18    20    1
   21    13    21    1
   22    21    22    1
@<TRIPOS>SUBSTRUCTURE
       1 MOL1            1 RESIDUE      1      MOL     
@<SCITEGIC>MOL_PROPERTY
VConf Rank
SciTegic.value.IntegerValue
743

@<SCITEGIC>MOL_PROPERTY
Conf_Id
SciTegic.value.IntegerValue
99

@<SCITEGIC>MOL_PROPERTY
Delta U+W
SciTegic.value.DoubleValue
-3.852

@<SCITEGIC>MOL_PROPERTY
U+W
SciTegic.value.DoubleValue
2.572

@<SCITEGIC>MOL_PROPERTY
Grad RMS
SciTegic.value.DoubleValue
0.000000

@<SCITEGIC>MOL_PROPERTY
U
SciTegic.value.DoubleValue
3.922

@<SCITEGIC>MOL_PROPERTY
W
SciTegic.value.DoubleValue
-1.350

@<SCITEGIC>MOL_PROPERTY
W(PB)
SciTegic.value.DoubleValue
-3.345

@<SCITEGIC>MOL_PROPERTY
W(SA)
SciTegic.value.DoubleValue
1.995

@<SCITEGIC>MOL_PROPERTY
Valence
SciTegic.value.DoubleValue
12.571

@<SCITEGIC>MOL_PROPERTY
Coulomb
SciTegic.value.DoubleValue
-10.581

@<SCITEGIC>MOL_PROPERTY
VdW
SciTegic.value.DoubleValue
1.932

@<SCITEGIC>MOL_PROPERTY
VdW6
SciTegic.value.DoubleValue
-10.483

@<SCITEGIC>MOL_PROPERTY
VdW12
SciTegic.value.DoubleValue
12.415

@<SCITEGIC>MOL_PROPERTY
Bond
SciTegic.value.DoubleValue
0.268

@<SCITEGIC>MOL_PROPERTY
Angle
SciTegic.value.DoubleValue
3.728

@<SCITEGIC>MOL_PROPERTY
Pdih
SciTegic.value.DoubleValue
8.575

@<SCITEGIC>MOL_PROPERTY
Idih
SciTegic.value.DoubleValue
0.000

@<SCITEGIC>MOL_PROPERTY
Tether
SciTegic.value.DoubleValue
0.000

@<TRIPOS>MOLECULE
guest-5_confgen4.mol2 : confsearch ligand conformer 744
          22          22           1
SMALL
USER_CHARGES
 
@<TRIPOS>ATOM
       1    C1      20.614588   18.027081   22.871059 C.3        1 MOL1        -0.1685
       2    H1      20.601947   16.959166   22.612817 H          1 MOL1         0.0832
       3    H2      21.387379   18.121883   23.645567 H          1 MOL1         0.0832
       4    C2      19.219591   18.392968   23.457539 C.3        1 MOL1        -0.1685
       5    H3      18.603207   17.483383   23.453296 H          1 MOL1         0.0832
       6    H4      19.314278   18.665775   24.517098 H          1 MOL1         0.0832
       7    C3      18.435397   19.498275   22.705152 C.3        1 MOL1        -0.1685
       8    H5      17.408627   19.520965   23.094965 H          1 MOL1         0.0832
       9    H6      18.323476   19.219884   21.649908 H          1 MOL1         0.0832
      10    C4      19.015275   20.936209   22.809638 C.3        1 MOL1        -0.1761
      11    H7      18.638202   21.520589   21.960487 H          1 MOL1         0.0832
      12    H8      18.593033   21.416364   23.702476 H          1 MOL1         0.0832
      13    C5      20.553594   21.102229   22.874215 C.3        1 MOL1         0.1218
      14    H9      20.766629   22.169083   22.715428 H          1 MOL1         0.0789
      15    C6      21.372247   20.318136   21.819157 C.3        1 MOL1        -0.1761
      16    H10     21.273951   20.829589   20.852982 H          1 MOL1         0.0832
      17    H11     22.432863   20.409215   22.088963 H          1 MOL1         0.0832
      18    C7      21.047290   18.813379   21.607231 C.3        1 MOL1        -0.1685
      19    H12     20.285510   18.705606   20.825155 H          1 MOL1         0.0832
      20    H13     21.941937   18.332120   21.189234 H          1 MOL1         0.0832
      21    O1      21.013857   20.772428   24.175227 O.3        1 MOL1        -0.5509
      22    H14     20.802994   19.821575   24.266593 H          1 MOL1         0.3779
@<TRIPOS>BOND
    1     1     2    1
    2     1     3    1
    3     1     4    1
    4     4     5    1
    5     4     6    1
    6     4     7    1
    7     7     8    1
    8     7     9    1
    9     7    10    1
   10    10    11    1
   11    10    12    1
   12    10    13    1
   13    13    14    1
   14    13    15    1
   15    15    16    1
   16    15    17    1
   17     1    18    1
   18    15    18    1
   19    18    19    1
   20    18    20    1
   21    13    21    1
   22    21    22    1
@<TRIPOS>SUBSTRUCTURE
       1 MOL1            1 RESIDUE      1      MOL     
@<SCITEGIC>MOL_PROPERTY
VConf Rank
SciTegic.value.IntegerValue
744

@<SCITEGIC>MOL_PROPERTY
Conf_Id
SciTegic.value.IntegerValue
98

@<SCITEGIC>MOL_PROPERTY
Delta U+W
SciTegic.value.DoubleValue
0.930

@<SCITEGIC>MOL_PROPERTY
U+W
SciTegic.value.DoubleValue
7.353

@<SCITEGIC>MOL_PROPERTY
Grad RMS
SciTegic.value.DoubleValue
0.000000

@<SCITEGIC>MOL_PROPERTY
U
SciTegic.value.DoubleValue
8.455

@<SCITEGIC>MOL_PROPERTY
W
SciTegic.value.DoubleValue
-1.102

@<SCITEGIC>MOL_PROPERTY
W(PB)
SciTegic.value.DoubleValue
-3.101

@<SCITEGIC>MOL_PROPERTY
W(SA)
SciTegic.value.DoubleValue
2.000

@<SCITEGIC>MOL_PROPERTY
Valence
SciTegic.value.DoubleValue
15.601

@<SCITEGIC>MOL_PROPERTY
Coulomb
SciTegic.value.DoubleValue
-10.573

@<SCITEGIC>MOL_PROPERTY
VdW
SciTegic.value.DoubleValue
3.427

@<SCITEGIC>MOL_PROPERTY
VdW6
SciTegic.value.DoubleValue
-11.360

@<SCITEGIC>MOL_PROPERTY
VdW12
SciTegic.value.DoubleValue
14.787

@<SCITEGIC>MOL_PROPERTY
Bond
SciTegic.value.DoubleValue
0.471

@<SCITEGIC>MOL_PROPERTY
Angle
SciTegic.value.DoubleValue
5.445

@<SCITEGIC>MOL_PROPERTY
Pdih
SciTegic.value.DoubleValue
9.685

@<SCITEGIC>MOL_PROPERTY
Idih
SciTegic.value.DoubleValue
0.000

@<SCITEGIC>MOL_PROPERTY
Tether
SciTegic.value.DoubleValue
0.000

@<TRIPOS>MOLECULE
guest-5_confgen4.mol2 : confsearch ligand conformer 745
          22          22           1
SMALL
USER_CHARGES
 
@<TRIPOS>ATOM
       1    C1      20.967485   19.494164   24.085715 C.3        1 MOL1        -0.1685
       2    H1      20.882807   18.400412   24.049438 H          1 MOL1         0.0832
       3    H2      21.618710   19.701350   24.945768 H          1 MOL1         0.0832
       4    C2      19.575571   20.118624   24.359183 C.3        1 MOL1        -0.1685
       5    H3      19.215707   19.717791   25.316630 H          1 MOL1         0.0832
       6    H4      19.681731   21.201339   24.511107 H          1 MOL1         0.0832
       7    C3      18.483271   19.858439   23.285018 C.3        1 MOL1        -0.1685
       8    H5      18.341104   20.755113   22.667944 H          1 MOL1         0.0832
       9    H6      17.523755   19.714749   23.800108 H          1 MOL1         0.0832
      10    C4      18.742753   18.634652   22.367019 C.3        1 MOL1        -0.1761
      11    H7      18.947231   17.754715   22.989535 H          1 MOL1         0.0832
      12    H8      17.809729   18.395493   21.839139 H          1 MOL1         0.0832
      13    C5      19.885239   18.798370   21.322131 C.3        1 MOL1         0.1218
      14    H9      20.504119   17.889974   21.351672 H          1 MOL1         0.0789
      15    C6      20.814035   20.022365   21.520710 C.3        1 MOL1        -0.1761
      16    H10     21.493489   20.096088   20.661662 H          1 MOL1         0.0832
      17    H11     20.220524   20.944134   21.494717 H          1 MOL1         0.0832
      18    C7      21.676520   19.999802   22.807341 C.3        1 MOL1        -0.1685
      19    H12     22.558210   19.368058   22.633169 H          1 MOL1         0.0832
      20    H13     22.062178   21.012754   22.985852 H          1 MOL1         0.0832
      21    O1      19.300869   18.911898   20.029537 O.3        1 MOL1        -0.5509
      22    H14     20.040213   18.955518   19.387940 H          1 MOL1         0.3779
@<TRIPOS>BOND
    1     1     2    1
    2     1     3    1
    3     1     4    1
    4     4     5    1
    5     4     6    1
    6     4     7    1
    7     7     8    1
    8     7     9    1
    9     7    10    1
   10    10    11    1
   11    10    12    1
   12    10    13    1
   13    13    14    1
   14    13    15    1
   15    15    16    1
   16    15    17    1
   17     1    18    1
   18    15    18    1
   19    18    19    1
   20    18    20    1
   21    13    21    1
   22    21    22    1
@<TRIPOS>SUBSTRUCTURE
       1 MOL1            1 RESIDUE      1      MOL     
@<SCITEGIC>MOL_PROPERTY
VConf Rank
SciTegic.value.IntegerValue
745

@<SCITEGIC>MOL_PROPERTY
Conf_Id
SciTegic.value.IntegerValue
141

@<SCITEGIC>MOL_PROPERTY
Delta U+W
SciTegic.value.DoubleValue
0.000

@<SCITEGIC>MOL_PROPERTY
U+W
SciTegic.value.DoubleValue
6.423

@<SCITEGIC>MOL_PROPERTY
Grad RMS
SciTegic.value.DoubleValue
0.000000

@<SCITEGIC>MOL_PROPERTY
U
SciTegic.value.DoubleValue
8.781

@<SCITEGIC>MOL_PROPERTY
W
SciTegic.value.DoubleValue
-2.358

@<SCITEGIC>MOL_PROPERTY
W(PB)
SciTegic.value.DoubleValue
-4.373

@<SCITEGIC>MOL_PROPERTY
W(SA)
SciTegic.value.DoubleValue
2.015

@<SCITEGIC>MOL_PROPERTY
Valence
SciTegic.value.DoubleValue
13.328

@<SCITEGIC>MOL_PROPERTY
Coulomb
SciTegic.value.DoubleValue
-8.387

@<SCITEGIC>MOL_PROPERTY
VdW
SciTegic.value.DoubleValue
3.840

@<SCITEGIC>MOL_PROPERTY
VdW6
SciTegic.value.DoubleValue
-9.744

@<SCITEGIC>MOL_PROPERTY
VdW12
SciTegic.value.DoubleValue
13.584

@<SCITEGIC>MOL_PROPERTY
Bond
SciTegic.value.DoubleValue
0.436

@<SCITEGIC>MOL_PROPERTY
Angle
SciTegic.value.DoubleValue
3.478

@<SCITEGIC>MOL_PROPERTY
Pdih
SciTegic.value.DoubleValue
9.415

@<SCITEGIC>MOL_PROPERTY
Idih
SciTegic.value.DoubleValue
0.000

@<SCITEGIC>MOL_PROPERTY
Tether
SciTegic.value.DoubleValue
0.000

@<TRIPOS>MOLECULE
guest-5_confgen4.mol2 : confsearch ligand conformer 746
          22          22           1
SMALL
USER_CHARGES
 
@<TRIPOS>ATOM
       1    C1      19.017833   20.198229   21.324900 C.3        1 MOL1        -0.1685
       2    H1      19.930555   20.614632   20.877512 H          1 MOL1         0.0832
       3    H2      18.209560   20.399157   20.608501 H          1 MOL1         0.0832
       4    C2      18.666807   20.925862   22.645122 C.3        1 MOL1        -0.1685
       5    H3      18.360070   21.953595   22.407358 H          1 MOL1         0.0832
       6    H4      17.787662   20.449915   23.100596 H          1 MOL1         0.0832
       7    C3      19.808755   20.991982   23.685273 C.3        1 MOL1        -0.1685
       8    H5      19.416573   21.467634   24.594545 H          1 MOL1         0.0832
       9    H6      20.600344   21.658402   23.316179 H          1 MOL1         0.0832
      10    C4      20.423829   19.623955   24.069158 C.3        1 MOL1        -0.1761
      11    H7      21.043052   19.777445   24.962740 H          1 MOL1         0.0832
      12    H8      19.638532   18.914214   24.359973 H          1 MOL1         0.0832
      13    C5      21.302484   19.028729   22.946083 C.3        1 MOL1         0.1218
      14    H9      21.778617   19.859026   22.405021 H          1 MOL1         0.0789
      15    C6      20.535509   18.159878   21.923271 C.3        1 MOL1        -0.1761
      16    H10     21.165293   18.067384   21.029030 H          1 MOL1         0.0832
      17    H11     20.426261   17.141943   22.320744 H          1 MOL1         0.0832
      18    C7      19.135082   18.665495   21.495254 C.3        1 MOL1        -0.1685
      19    H12     18.874804   18.179955   20.544817 H          1 MOL1         0.0832
      20    H13     18.383058   18.319772   22.217505 H          1 MOL1         0.0832
      21    O1      22.316588   18.223993   23.535327 O.3        1 MOL1        -0.5509
      22    H14     22.837791   18.811312   24.121861 H          1 MOL1         0.3779
@<TRIPOS>BOND
    1     1     2    1
    2     1     3    1
    3     1     4    1
    4     4     5    1
    5     4     6    1
    6     4     7    1
    7     7     8    1
    8     7     9    1
    9     7    10    1
   10    10    11    1
   11    10    12    1
   12    10    13    1
   13    13    14    1
   14    13    15    1
   15    15    16    1
   16    15    17    1
   17     1    18    1
   18    15    18    1
   19    18    19    1
   20    18    20    1
   21    13    21    1
   22    21    22    1
@<TRIPOS>SUBSTRUCTURE
       1 MOL1            1 RESIDUE      1      MOL     
@<SCITEGIC>MOL_PROPERTY
VConf Rank
SciTegic.value.IntegerValue
746

@<SCITEGIC>MOL_PROPERTY
Conf_Id
SciTegic.value.IntegerValue
144

@<SCITEGIC>MOL_PROPERTY
Delta U+W
SciTegic.value.DoubleValue
-3.291

@<SCITEGIC>MOL_PROPERTY
U+W
SciTegic.value.DoubleValue
3.132

@<SCITEGIC>MOL_PROPERTY
Grad RMS
SciTegic.value.DoubleValue
0.000000

@<SCITEGIC>MOL_PROPERTY
U
SciTegic.value.DoubleValue
5.411

@<SCITEGIC>MOL_PROPERTY
W
SciTegic.value.DoubleValue
-2.279

@<SCITEGIC>MOL_PROPERTY
W(PB)
SciTegic.value.DoubleValue
-4.300

@<SCITEGIC>MOL_PROPERTY
W(SA)
SciTegic.value.DoubleValue
2.021

@<SCITEGIC>MOL_PROPERTY
Valence
SciTegic.value.DoubleValue
11.909

@<SCITEGIC>MOL_PROPERTY
Coulomb
SciTegic.value.DoubleValue
-8.733

@<SCITEGIC>MOL_PROPERTY
VdW
SciTegic.value.DoubleValue
2.236

@<SCITEGIC>MOL_PROPERTY
VdW6
SciTegic.value.DoubleValue
-8.936

@<SCITEGIC>MOL_PROPERTY
VdW12
SciTegic.value.DoubleValue
11.172

@<SCITEGIC>MOL_PROPERTY
Bond
SciTegic.value.DoubleValue
0.223

@<SCITEGIC>MOL_PROPERTY
Angle
SciTegic.value.DoubleValue
2.457

@<SCITEGIC>MOL_PROPERTY
Pdih
SciTegic.value.DoubleValue
9.228

@<SCITEGIC>MOL_PROPERTY
Idih
SciTegic.value.DoubleValue
0.000

@<SCITEGIC>MOL_PROPERTY
Tether
SciTegic.value.DoubleValue
0.000

@<TRIPOS>MOLECULE
guest-5_confgen4.mol2 : confsearch ligand conformer 747
          22          22           1
SMALL
USER_CHARGES
 
@<TRIPOS>ATOM
       1    C1      21.065326   18.316007   23.107457 C.3        1 MOL1        -0.1685
       2    H1      21.673469   17.402156   23.151384 H          1 MOL1         0.0832
       3    H2      21.366978   18.923598   23.971472 H          1 MOL1         0.0832
       4    C2      19.577789   17.906258   23.214287 C.3        1 MOL1        -0.1685
       5    H3      19.212288   17.595591   22.226021 H          1 MOL1         0.0832
       6    H4      19.499943   17.013090   23.849259 H          1 MOL1         0.0832
       7    C3      18.638906   18.989470   23.798301 C.3        1 MOL1        -0.1685
       8    H5      18.682841   18.946875   24.895193 H          1 MOL1         0.0832
       9    H6      17.606009   18.727457   23.530925 H          1 MOL1         0.0832
      10    C4      18.918102   20.448550   23.360953 C.3        1 MOL1        -0.1761
      11    H7      18.014415   21.038854   23.564327 H          1 MOL1         0.0832
      12    H8      19.701515   20.873304   24.001846 H          1 MOL1         0.0832
      13    C5      19.322320   20.618511   21.879294 C.3        1 MOL1         0.1218
      14    H9      18.792493   19.876151   21.265571 H          1 MOL1         0.0789
      15    C6      20.846123   20.479263   21.661096 C.3        1 MOL1        -0.1761
      16    H10     21.093791   20.855550   20.659498 H          1 MOL1         0.0832
      17    H11     21.378340   21.127954   22.368931 H          1 MOL1         0.0832
      18    C7      21.397790   19.038692   21.779983 C.3        1 MOL1        -0.1685
      19    H12     21.031929   18.438007   20.936035 H          1 MOL1         0.0832
      20    H13     22.489774   19.079102   21.667174 H          1 MOL1         0.0832
      21    O1      18.938471   21.920578   21.457995 O.3        1 MOL1        -0.5509
      22    H14     19.427459   22.550608   22.026426 H          1 MOL1         0.3779
@<TRIPOS>BOND
    1     1     2    1
    2     1     3    1
    3     1     4    1
    4     4     5    1
    5     4     6    1
    6     4     7    1
    7     7     8    1
    8     7     9    1
    9     7    10    1
   10    10    11    1
   11    10    12    1
   12    10    13    1
   13    13    14    1
   14    13    15    1
   15    15    16    1
   16    15    17    1
   17     1    18    1
   18    15    18    1
   19    18    19    1
   20    18    20    1
   21    13    21    1
   22    21    22    1
@<TRIPOS>SUBSTRUCTURE
       1 MOL1            1 RESIDUE      1      MOL     
@<SCITEGIC>MOL_PROPERTY
VConf Rank
SciTegic.value.IntegerValue
747

@<SCITEGIC>MOL_PROPERTY
Conf_Id
SciTegic.value.IntegerValue
76

@<SCITEGIC>MOL_PROPERTY
Delta U+W
SciTegic.value.DoubleValue
-3.175

@<SCITEGIC>MOL_PROPERTY
U+W
SciTegic.value.DoubleValue
3.248

@<SCITEGIC>MOL_PROPERTY
Grad RMS
SciTegic.value.DoubleValue
0.000000

@<SCITEGIC>MOL_PROPERTY
U
SciTegic.value.DoubleValue
5.336

@<SCITEGIC>MOL_PROPERTY
W
SciTegic.value.DoubleValue
-2.088

@<SCITEGIC>MOL_PROPERTY
W(PB)
SciTegic.value.DoubleValue
-4.098

@<SCITEGIC>MOL_PROPERTY
W(SA)
SciTegic.value.DoubleValue
2.010

@<SCITEGIC>MOL_PROPERTY
Valence
SciTegic.value.DoubleValue
12.390

@<SCITEGIC>MOL_PROPERTY
Coulomb
SciTegic.value.DoubleValue
-9.270

@<SCITEGIC>MOL_PROPERTY
VdW
SciTegic.value.DoubleValue
2.216

@<SCITEGIC>MOL_PROPERTY
VdW6
SciTegic.value.DoubleValue
-8.967

@<SCITEGIC>MOL_PROPERTY
VdW12
SciTegic.value.DoubleValue
11.183

@<SCITEGIC>MOL_PROPERTY
Bond
SciTegic.value.DoubleValue
0.218

@<SCITEGIC>MOL_PROPERTY
Angle
SciTegic.value.DoubleValue
2.426

@<SCITEGIC>MOL_PROPERTY
Pdih
SciTegic.value.DoubleValue
9.745

@<SCITEGIC>MOL_PROPERTY
Idih
SciTegic.value.DoubleValue
0.000

@<SCITEGIC>MOL_PROPERTY
Tether
SciTegic.value.DoubleValue
0.000

@<TRIPOS>MOLECULE
guest-5_confgen4.mol2 : confsearch ligand conformer 748
          22          22           1
SMALL
USER_CHARGES
 
@<TRIPOS>ATOM
       1    C1      19.400002   20.496023   24.167420 C.3        1 MOL1        -0.1685
       2    H1      19.451779   20.196231   25.222989 H          1 MOL1         0.0832
       3    H2      18.949008   21.497724   24.163813 H          1 MOL1         0.0832
       4    C2      18.453360   19.517250   23.432201 C.3        1 MOL1        -0.1685
       5    H3      18.580058   18.506491   23.843045 H          1 MOL1         0.0832
       6    H4      17.419367   19.802882   23.668965 H          1 MOL1         0.0832
       7    C3      18.622853   19.473000   21.895693 C.3        1 MOL1        -0.1685
       8    H5      18.838725   20.472659   21.494548 H          1 MOL1         0.0832
       9    H6      17.663780   19.168646   21.455421 H          1 MOL1         0.0832
      10    C4      19.696444   18.452483   21.439594 C.3        1 MOL1        -0.1761
      11    H7      19.496127   17.482528   21.912429 H          1 MOL1         0.0832
      12    H8      19.583016   18.283437   20.360719 H          1 MOL1         0.0832
      13    C5      21.167677   18.842755   21.708403 C.3        1 MOL1         0.1218
      14    H9      21.775645   17.950860   21.498653 H          1 MOL1         0.0789
      15    C6      21.479677   19.275223   23.163090 C.3        1 MOL1        -0.1761
      16    H10     21.194509   18.475125   23.858361 H          1 MOL1         0.0832
      17    H11     22.569365   19.371178   23.253425 H          1 MOL1         0.0832
      18    C7      20.836345   20.615551   23.604520 C.3        1 MOL1        -0.1685
      19    H12     21.465766   21.071031   24.380916 H          1 MOL1         0.0832
      20    H13     20.842204   21.329116   22.770115 H          1 MOL1         0.0832
      21    O1      21.555507   19.867754   20.799014 O.3        1 MOL1        -0.5509
      22    H14     22.471006   20.119863   21.036893 H          1 MOL1         0.3779
@<TRIPOS>BOND
    1     1     2    1
    2     1     3    1
    3     1     4    1
    4     4     5    1
    5     4     6    1
    6     4     7    1
    7     7     8    1
    8     7     9    1
    9     7    10    1
   10    10    11    1
   11    10    12    1
   12    10    13    1
   13    13    14    1
   14    13    15    1
   15    15    16    1
   16    15    17    1
   17     1    18    1
   18    15    18    1
   19    18    19    1
   20    18    20    1
   21    13    21    1
   22    21    22    1
@<TRIPOS>SUBSTRUCTURE
       1 MOL1            1 RESIDUE      1      MOL     
@<SCITEGIC>MOL_PROPERTY
VConf Rank
SciTegic.value.IntegerValue
748

@<SCITEGIC>MOL_PROPERTY
Conf_Id
SciTegic.value.IntegerValue
95

@<SCITEGIC>MOL_PROPERTY
Delta U+W
SciTegic.value.DoubleValue
-2.289

@<SCITEGIC>MOL_PROPERTY
U+W
SciTegic.value.DoubleValue
4.134

@<SCITEGIC>MOL_PROPERTY
Grad RMS
SciTegic.value.DoubleValue
0.000000

@<SCITEGIC>MOL_PROPERTY
U
SciTegic.value.DoubleValue
6.373

@<SCITEGIC>MOL_PROPERTY
W
SciTegic.value.DoubleValue
-2.240

@<SCITEGIC>MOL_PROPERTY
W(PB)
SciTegic.value.DoubleValue
-4.254

@<SCITEGIC>MOL_PROPERTY
W(SA)
SciTegic.value.DoubleValue
2.015

@<SCITEGIC>MOL_PROPERTY
Valence
SciTegic.value.DoubleValue
12.093

@<SCITEGIC>MOL_PROPERTY
Coulomb
SciTegic.value.DoubleValue
-8.058

@<SCITEGIC>MOL_PROPERTY
VdW
SciTegic.value.DoubleValue
2.339

@<SCITEGIC>MOL_PROPERTY
VdW6
SciTegic.value.DoubleValue
-9.683

@<SCITEGIC>MOL_PROPERTY
VdW12
SciTegic.value.DoubleValue
12.022

@<SCITEGIC>MOL_PROPERTY
Bond
SciTegic.value.DoubleValue
0.268

@<SCITEGIC>MOL_PROPERTY
Angle
SciTegic.value.DoubleValue
3.005

@<SCITEGIC>MOL_PROPERTY
Pdih
SciTegic.value.DoubleValue
8.820

@<SCITEGIC>MOL_PROPERTY
Idih
SciTegic.value.DoubleValue
0.000

@<SCITEGIC>MOL_PROPERTY
Tether
SciTegic.value.DoubleValue
0.000

@<TRIPOS>MOLECULE
guest-5_confgen4.mol2 : confsearch ligand conformer 749
          22          22           1
SMALL
USER_CHARGES
 
@<TRIPOS>ATOM
       1    C1      19.483956   18.772948   21.092416 C.3        1 MOL1        -0.1685
       2    H1      19.883004   17.854585   20.640614 H          1 MOL1         0.0832
       3    H2      18.656365   19.089247   20.442926 H          1 MOL1         0.0832
       4    C2      20.591930   19.852398   21.053583 C.3        1 MOL1        -0.1685
       5    H3      21.569097   19.379978   21.222238 H          1 MOL1         0.0832
       6    H4      20.634554   20.258299   20.033668 H          1 MOL1         0.0832
       7    C3      20.405238   21.019368   22.051002 C.3        1 MOL1        -0.1685
       8    H5      19.345058   21.292002   22.143238 H          1 MOL1         0.0832
       9    H6      20.912604   21.902637   21.640098 H          1 MOL1         0.0832
      10    C4      21.024332   20.722784   23.440272 C.3        1 MOL1        -0.1761
      11    H7      22.055526   20.371321   23.306076 H          1 MOL1         0.0832
      12    H8      21.108360   21.665914   23.995634 H          1 MOL1         0.0832
      13    C5      20.265570   19.704444   24.321748 C.3        1 MOL1         0.1218
      14    H9      20.916839   19.478628   25.178461 H          1 MOL1         0.0789
      15    C6      19.936148   18.355891   23.633840 C.3        1 MOL1        -0.1761
      16    H10     20.859294   17.882928   23.275238 H          1 MOL1         0.0832
      17    H11     19.537068   17.686562   24.406862 H          1 MOL1         0.0832
      18    C7      18.897759   18.437975   22.484730 C.3        1 MOL1        -0.1685
      19    H12     18.378823   17.473000   22.408939 H          1 MOL1         0.0832
      20    H13     18.117279   19.167443   22.738399 H          1 MOL1         0.0832
      21    O1      19.072956   20.305204   24.817380 O.3        1 MOL1        -0.5509
      22    H14     19.334577   21.156259   25.224131 H          1 MOL1         0.3779
@<TRIPOS>BOND
    1     1     2    1
    2     1     3    1
    3     1     4    1
    4     4     5    1
    5     4     6    1
    6     4     7    1
    7     7     8    1
    8     7     9    1
    9     7    10    1
   10    10    11    1
   11    10    12    1
   12    10    13    1
   13    13    14    1
   14    13    15    1
   15    15    16    1
   16    15    17    1
   17     1    18    1
   18    15    18    1
   19    18    19    1
   20    18    20    1
   21    13    21    1
   22    21    22    1
@<TRIPOS>SUBSTRUCTURE
       1 MOL1            1 RESIDUE      1      MOL     
@<SCITEGIC>MOL_PROPERTY
VConf Rank
SciTegic.value.IntegerValue
749

@<SCITEGIC>MOL_PROPERTY
Conf_Id
SciTegic.value.IntegerValue
41

@<SCITEGIC>MOL_PROPERTY
Delta U+W
SciTegic.value.DoubleValue
-2.114

@<SCITEGIC>MOL_PROPERTY
U+W
SciTegic.value.DoubleValue
4.310

@<SCITEGIC>MOL_PROPERTY
Grad RMS
SciTegic.value.DoubleValue
0.000000

@<SCITEGIC>MOL_PROPERTY
U
SciTegic.value.DoubleValue
6.598

@<SCITEGIC>MOL_PROPERTY
W
SciTegic.value.DoubleValue
-2.289

@<SCITEGIC>MOL_PROPERTY
W(PB)
SciTegic.value.DoubleValue
-4.294

@<SCITEGIC>MOL_PROPERTY
W(SA)
SciTegic.value.DoubleValue
2.005

@<SCITEGIC>MOL_PROPERTY
Valence
SciTegic.value.DoubleValue
12.082

@<SCITEGIC>MOL_PROPERTY
Coulomb
SciTegic.value.DoubleValue
-7.801

@<SCITEGIC>MOL_PROPERTY
VdW
SciTegic.value.DoubleValue
2.317

@<SCITEGIC>MOL_PROPERTY
VdW6
SciTegic.value.DoubleValue
-9.658

@<SCITEGIC>MOL_PROPERTY
VdW12
SciTegic.value.DoubleValue
11.975

@<SCITEGIC>MOL_PROPERTY
Bond
SciTegic.value.DoubleValue
0.267

@<SCITEGIC>MOL_PROPERTY
Angle
SciTegic.value.DoubleValue
3.051

@<SCITEGIC>MOL_PROPERTY
Pdih
SciTegic.value.DoubleValue
8.764

@<SCITEGIC>MOL_PROPERTY
Idih
SciTegic.value.DoubleValue
0.000

@<SCITEGIC>MOL_PROPERTY
Tether
SciTegic.value.DoubleValue
0.000

@<TRIPOS>MOLECULE
guest-5_confgen4.mol2 : confsearch ligand conformer 750
          22          22           1
SMALL
USER_CHARGES
 
@<TRIPOS>ATOM
       1    C1      19.462312   20.880775   21.950353 C.3        1 MOL1        -0.1685
       2    H1      18.970405   21.589731   21.270678 H          1 MOL1         0.0832
       3    H2      19.559703   21.396534   22.915591 H          1 MOL1         0.0832
       4    C2      20.853358   20.550212   21.364600 C.3        1 MOL1        -0.1685
       5    H3      20.733935   19.981136   20.432682 H          1 MOL1         0.0832
       6    H4      21.347447   21.489797   21.082435 H          1 MOL1         0.0832
       7    C3      21.789198   19.780402   22.322106 C.3        1 MOL1        -0.1685
       8    H5      22.078367   20.434929   23.155091 H          1 MOL1         0.0832
       9    H6      22.720559   19.562633   21.782412 H          1 MOL1         0.0832
      10    C4      21.218473   18.444268   22.870016 C.3        1 MOL1        -0.1761
      11    H7      20.857662   17.821046   22.041966 H          1 MOL1         0.0832
      12    H8      22.050573   17.887211   23.319328 H          1 MOL1         0.0832
      13    C5      20.115959   18.570274   23.952890 C.3        1 MOL1         0.1218
      14    H9      20.052370   17.593125   24.453303 H          1 MOL1         0.0789
      15    C6      18.688614   18.881703   23.432467 C.3        1 MOL1        -0.1761
      16    H10     18.149667   17.930624   23.332237 H          1 MOL1         0.0832
      17    H11     18.141897   19.442858   24.201672 H          1 MOL1         0.0832
      18    C7      18.559882   19.634370   22.084944 C.3        1 MOL1        -0.1685
      19    H12     18.752427   18.944328   21.252368 H          1 MOL1         0.0832
      20    H13     17.512344   19.945515   21.973008 H          1 MOL1         0.0832
      21    O1      20.489348   19.533572   24.934500 O.3        1 MOL1        -0.5509
      22    H14     19.779389   19.540588   25.608160 H          1 MOL1         0.3779
@<TRIPOS>BOND
    1     1     2    1
    2     1     3    1
    3     1     4    1
    4     4     5    1
    5     4     6    1
    6     4     7    1
    7     7     8    1
    8     7     9    1
    9     7    10    1
   10    10    11    1
   11    10    12    1
   12    10    13    1
   13    13    14    1
   14    13    15    1
   15    15    16    1
   16    15    17    1
   17     1    18    1
   18    15    18    1
   19    18    19    1
   20    18    20    1
   21    13    21    1
   22    21    22    1
@<TRIPOS>SUBSTRUCTURE
       1 MOL1            1 RESIDUE      1      MOL     
@<SCITEGIC>MOL_PROPERTY
VConf Rank
SciTegic.value.IntegerValue
750

@<SCITEGIC>MOL_PROPERTY
Conf_Id
SciTegic.value.IntegerValue
104

@<SCITEGIC>MOL_PROPERTY
Delta U+W
SciTegic.value.DoubleValue
-1.172

@<SCITEGIC>MOL_PROPERTY
U+W
SciTegic.value.DoubleValue
5.252

@<SCITEGIC>MOL_PROPERTY
Grad RMS
SciTegic.value.DoubleValue
0.000000

@<SCITEGIC>MOL_PROPERTY
U
SciTegic.value.DoubleValue
7.482

@<SCITEGIC>MOL_PROPERTY
W
SciTegic.value.DoubleValue
-2.230

@<SCITEGIC>MOL_PROPERTY
W(PB)
SciTegic.value.DoubleValue
-4.220

@<SCITEGIC>MOL_PROPERTY
W(SA)
SciTegic.value.DoubleValue
1.990

@<SCITEGIC>MOL_PROPERTY
Valence
SciTegic.value.DoubleValue
12.309

@<SCITEGIC>MOL_PROPERTY
Coulomb
SciTegic.value.DoubleValue
-7.084

@<SCITEGIC>MOL_PROPERTY
VdW
SciTegic.value.DoubleValue
2.258

@<SCITEGIC>MOL_PROPERTY
VdW6
SciTegic.value.DoubleValue
-9.770

@<SCITEGIC>MOL_PROPERTY
VdW12
SciTegic.value.DoubleValue
12.028

@<SCITEGIC>MOL_PROPERTY
Bond
SciTegic.value.DoubleValue
0.284

@<SCITEGIC>MOL_PROPERTY
Angle
SciTegic.value.DoubleValue
3.491

@<SCITEGIC>MOL_PROPERTY
Pdih
SciTegic.value.DoubleValue
8.535

@<SCITEGIC>MOL_PROPERTY
Idih
SciTegic.value.DoubleValue
0.000

@<SCITEGIC>MOL_PROPERTY
Tether
SciTegic.value.DoubleValue
0.000

@<TRIPOS>MOLECULE
guest-5_confgen4.mol2 : confsearch ligand conformer 751
          22          22           1
SMALL
USER_CHARGES
 
@<TRIPOS>ATOM
       1    C1      18.664674   18.746715   22.871984 C.3        1 MOL1        -0.1685
       2    H1      19.164272   17.771880   22.790852 H          1 MOL1         0.0832
       3    H2      17.596035   18.528522   23.003673 H          1 MOL1         0.0832
       4    C2      18.823924   19.559138   21.566575 C.3        1 MOL1        -0.1685
       5    H3      18.097279   19.186756   20.831343 H          1 MOL1         0.0832
       6    H4      18.533550   20.601987   21.749568 H          1 MOL1         0.0832
       7    C3      20.227126   19.507993   20.910768 C.3        1 MOL1        -0.1685
       8    H5      20.362025   20.415899   20.306762 H          1 MOL1         0.0832
       9    H6      20.245284   18.675962   20.193604 H          1 MOL1         0.0832
      10    C4      21.448109   19.338214   21.855004 C.3        1 MOL1        -0.1761
      11    H7      21.532259   18.283301   22.146608 H          1 MOL1         0.0832
      12    H8      22.356292   19.549851   21.275855 H          1 MOL1         0.0832
      13    C5      21.478183   20.209993   23.131356 C.3        1 MOL1         0.1218
      14    H9      22.525816   20.274314   23.458782 H          1 MOL1         0.0789
      15    C6      20.681849   19.589067   24.301217 C.3        1 MOL1        -0.1761
      16    H10     21.068692   18.579853   24.493308 H          1 MOL1         0.0832
      17    H11     20.900461   20.166939   25.208695 H          1 MOL1         0.0832
      18    C7      19.144690   19.512680   24.127732 C.3        1 MOL1        -0.1685
      19    H12     18.730529   19.014440   25.014828 H          1 MOL1         0.0832
      20    H13     18.718616   20.525063   24.132235 H          1 MOL1         0.0832
      21    O1      21.000523   21.517244   22.853674 O.3        1 MOL1        -0.5509
      22    H14     20.103520   21.371712   22.492437 H          1 MOL1         0.3779
@<TRIPOS>BOND
    1     1     2    1
    2     1     3    1
    3     1     4    1
    4     4     5    1
    5     4     6    1
    6     4     7    1
    7     7     8    1
    8     7     9    1
    9     7    10    1
   10    10    11    1
   11    10    12    1
   12    10    13    1
   13    13    14    1
   14    13    15    1
   15    15    16    1
   16    15    17    1
   17     1    18    1
   18    15    18    1
   19    18    19    1
   20    18    20    1
   21    13    21    1
   22    21    22    1
@<TRIPOS>SUBSTRUCTURE
       1 MOL1            1 RESIDUE      1      MOL     
@<SCITEGIC>MOL_PROPERTY
VConf Rank
SciTegic.value.IntegerValue
751

@<SCITEGIC>MOL_PROPERTY
Conf_Id
SciTegic.value.IntegerValue
99

@<SCITEGIC>MOL_PROPERTY
Delta U+W
SciTegic.value.DoubleValue
-3.852

@<SCITEGIC>MOL_PROPERTY
U+W
SciTegic.value.DoubleValue
2.572

@<SCITEGIC>MOL_PROPERTY
Grad RMS
SciTegic.value.DoubleValue
0.000000

@<SCITEGIC>MOL_PROPERTY
U
SciTegic.value.DoubleValue
3.922

@<SCITEGIC>MOL_PROPERTY
W
SciTegic.value.DoubleValue
-1.350

@<SCITEGIC>MOL_PROPERTY
W(PB)
SciTegic.value.DoubleValue
-3.345

@<SCITEGIC>MOL_PROPERTY
W(SA)
SciTegic.value.DoubleValue
1.995

@<SCITEGIC>MOL_PROPERTY
Valence
SciTegic.value.DoubleValue
12.571

@<SCITEGIC>MOL_PROPERTY
Coulomb
SciTegic.value.DoubleValue
-10.581

@<SCITEGIC>MOL_PROPERTY
VdW
SciTegic.value.DoubleValue
1.932

@<SCITEGIC>MOL_PROPERTY
VdW6
SciTegic.value.DoubleValue
-10.483

@<SCITEGIC>MOL_PROPERTY
VdW12
SciTegic.value.DoubleValue
12.415

@<SCITEGIC>MOL_PROPERTY
Bond
SciTegic.value.DoubleValue
0.268

@<SCITEGIC>MOL_PROPERTY
Angle
SciTegic.value.DoubleValue
3.728

@<SCITEGIC>MOL_PROPERTY
Pdih
SciTegic.value.DoubleValue
8.575

@<SCITEGIC>MOL_PROPERTY
Idih
SciTegic.value.DoubleValue
0.000

@<SCITEGIC>MOL_PROPERTY
Tether
SciTegic.value.DoubleValue
0.000

@<TRIPOS>MOLECULE
guest-5_confgen4.mol2 : confsearch ligand conformer 752
          22          22           1
SMALL
USER_CHARGES
 
@<TRIPOS>ATOM
       1    C1      18.688494   18.672256   22.572725 C.3        1 MOL1        -0.1685
       2    H1      17.658357   18.435344   22.872695 H          1 MOL1         0.0832
       3    H2      18.932960   17.936851   21.794605 H          1 MOL1         0.0832
       4    C2      19.606372   18.465936   23.813201 C.3        1 MOL1        -0.1685
       5    H3      18.973546   18.139564   24.650042 H          1 MOL1         0.0832
       6    H4      20.297128   17.630337   23.638033 H          1 MOL1         0.0832
       7    C3      20.404412   19.709474   24.281705 C.3        1 MOL1        -0.1685
       8    H5      20.849453   19.486727   25.261015 H          1 MOL1         0.0832
       9    H6      19.714999   20.540705   24.474927 H          1 MOL1         0.0832
      10    C4      21.544813   20.182381   23.337949 C.3        1 MOL1        -0.1761
      11    H7      21.753307   21.238081   23.554207 H          1 MOL1         0.0832
      12    H8      22.463419   19.644234   23.607314 H          1 MOL1         0.0832
      13    C5      21.343281   20.025569   21.810548 C.3        1 MOL1         0.1218
      14    H9      22.135104   20.611426   21.322119 H          1 MOL1         0.0789
      15    C6      19.994277   20.530647   21.242016 C.3        1 MOL1        -0.1761
      16    H10     20.019587   21.627505   21.210323 H          1 MOL1         0.0832
      17    H11     19.937246   20.211408   20.192811 H          1 MOL1         0.0832
      18    C7      18.686057   20.095700   21.959080 C.3        1 MOL1        -0.1685
      19    H12     18.424364   20.830929   22.730133 H          1 MOL1         0.0832
      20    H13     17.866848   20.157146   21.229803 H          1 MOL1         0.0832
      21    O1      21.537594   18.669384   21.441432 O.3        1 MOL1        -0.5509
      22    H14     20.814254   18.194297   21.897506 H          1 MOL1         0.3779
@<TRIPOS>BOND
    1     1     2    1
    2     1     3    1
    3     1     4    1
    4     4     5    1
    5     4     6    1
    6     4     7    1
    7     7     8    1
    8     7     9    1
    9     7    10    1
   10    10    11    1
   11    10    12    1
   12    10    13    1
   13    13    14    1
   14    13    15    1
   15    15    16    1
   16    15    17    1
   17     1    18    1
   18    15    18    1
   19    18    19    1
   20    18    20    1
   21    13    21    1
   22    21    22    1
@<TRIPOS>SUBSTRUCTURE
       1 MOL1            1 RESIDUE      1      MOL     
@<SCITEGIC>MOL_PROPERTY
VConf Rank
SciTegic.value.IntegerValue
752

@<SCITEGIC>MOL_PROPERTY
Conf_Id
SciTegic.value.IntegerValue
98

@<SCITEGIC>MOL_PROPERTY
Delta U+W
SciTegic.value.DoubleValue
0.930

@<SCITEGIC>MOL_PROPERTY
U+W
SciTegic.value.DoubleValue
7.353

@<SCITEGIC>MOL_PROPERTY
Grad RMS
SciTegic.value.DoubleValue
0.000000

@<SCITEGIC>MOL_PROPERTY
U
SciTegic.value.DoubleValue
8.455

@<SCITEGIC>MOL_PROPERTY
W
SciTegic.value.DoubleValue
-1.102

@<SCITEGIC>MOL_PROPERTY
W(PB)
SciTegic.value.DoubleValue
-3.101

@<SCITEGIC>MOL_PROPERTY
W(SA)
SciTegic.value.DoubleValue
2.000

@<SCITEGIC>MOL_PROPERTY
Valence
SciTegic.value.DoubleValue
15.601

@<SCITEGIC>MOL_PROPERTY
Coulomb
SciTegic.value.DoubleValue
-10.573

@<SCITEGIC>MOL_PROPERTY
VdW
SciTegic.value.DoubleValue
3.427

@<SCITEGIC>MOL_PROPERTY
VdW6
SciTegic.value.DoubleValue
-11.360

@<SCITEGIC>MOL_PROPERTY
VdW12
SciTegic.value.DoubleValue
14.787

@<SCITEGIC>MOL_PROPERTY
Bond
SciTegic.value.DoubleValue
0.471

@<SCITEGIC>MOL_PROPERTY
Angle
SciTegic.value.DoubleValue
5.445

@<SCITEGIC>MOL_PROPERTY
Pdih
SciTegic.value.DoubleValue
9.685

@<SCITEGIC>MOL_PROPERTY
Idih
SciTegic.value.DoubleValue
0.000

@<SCITEGIC>MOL_PROPERTY
Tether
SciTegic.value.DoubleValue
0.000

@<TRIPOS>MOLECULE
guest-5_confgen4.mol2 : confsearch ligand conformer 753
          22          22           1
SMALL
USER_CHARGES
 
@<TRIPOS>ATOM
       1    C1      20.508533   19.443422   21.010926 C.3        1 MOL1        -0.1685
       2    H1      19.466987   19.198161   20.766365 H          1 MOL1         0.0832
       3    H2      21.024566   19.493684   20.042475 H          1 MOL1         0.0832
       4    C2      21.134881   18.296823   21.844689 C.3        1 MOL1        -0.1685
       5    H3      21.075327   17.379721   21.242816 H          1 MOL1         0.0832
       6    H4      22.206791   18.489488   21.987911 H          1 MOL1         0.0832
       7    C3      20.478304   18.013197   23.224221 C.3        1 MOL1        -0.1685
       8    H5      21.100937   18.424863   24.029126 H          1 MOL1         0.0832
       9    H6      20.484239   16.927256   23.389544 H          1 MOL1         0.0832
      10    C4      19.023952   18.531549   23.378756 C.3        1 MOL1        -0.1761
      11    H7      18.421293   18.169030   22.536729 H          1 MOL1         0.0832
      12    H8      18.581647   18.058529   24.265889 H          1 MOL1         0.0832
      13    C5      18.861119   20.075384   23.496772 C.3        1 MOL1         0.1218
      14    H9      18.043213   20.381843   22.828804 H          1 MOL1         0.0789
      15    C6      20.113309   20.917091   23.144909 C.3        1 MOL1        -0.1761
      16    H10     19.912334   21.969768   23.382687 H          1 MOL1         0.0832
      17    H11     20.945958   20.631060   23.798721 H          1 MOL1         0.0832
      18    C7      20.569139   20.843272   21.666201 C.3        1 MOL1        -0.1685
      19    H12     19.950553   21.527043   21.069024 H          1 MOL1         0.0832
      20    H13     21.595559   21.228703   21.598557 H          1 MOL1         0.0832
      21    O1      18.499257   20.389210   24.836826 O.3        1 MOL1        -0.5509
      22    H14     18.347357   21.356705   24.869388 H          1 MOL1         0.3779
@<TRIPOS>BOND
    1     1     2    1
    2     1     3    1
    3     1     4    1
    4     4     5    1
    5     4     6    1
    6     4     7    1
    7     7     8    1
    8     7     9    1
    9     7    10    1
   10    10    11    1
   11    10    12    1
   12    10    13    1
   13    13    14    1
   14    13    15    1
   15    15    16    1
   16    15    17    1
   17     1    18    1
   18    15    18    1
   19    18    19    1
   20    18    20    1
   21    13    21    1
   22    21    22    1
@<TRIPOS>SUBSTRUCTURE
       1 MOL1            1 RESIDUE      1      MOL     
@<SCITEGIC>MOL_PROPERTY
VConf Rank
SciTegic.value.IntegerValue
753

@<SCITEGIC>MOL_PROPERTY
Conf_Id
SciTegic.value.IntegerValue
141

@<SCITEGIC>MOL_PROPERTY
Delta U+W
SciTegic.value.DoubleValue
0.000

@<SCITEGIC>MOL_PROPERTY
U+W
SciTegic.value.DoubleValue
6.423

@<SCITEGIC>MOL_PROPERTY
Grad RMS
SciTegic.value.DoubleValue
0.000000

@<SCITEGIC>MOL_PROPERTY
U
SciTegic.value.DoubleValue
8.781

@<SCITEGIC>MOL_PROPERTY
W
SciTegic.value.DoubleValue
-2.358

@<SCITEGIC>MOL_PROPERTY
W(PB)
SciTegic.value.DoubleValue
-4.373

@<SCITEGIC>MOL_PROPERTY
W(SA)
SciTegic.value.DoubleValue
2.015

@<SCITEGIC>MOL_PROPERTY
Valence
SciTegic.value.DoubleValue
13.328

@<SCITEGIC>MOL_PROPERTY
Coulomb
SciTegic.value.DoubleValue
-8.387

@<SCITEGIC>MOL_PROPERTY
VdW
SciTegic.value.DoubleValue
3.840

@<SCITEGIC>MOL_PROPERTY
VdW6
SciTegic.value.DoubleValue
-9.744

@<SCITEGIC>MOL_PROPERTY
VdW12
SciTegic.value.DoubleValue
13.584

@<SCITEGIC>MOL_PROPERTY
Bond
SciTegic.value.DoubleValue
0.436

@<SCITEGIC>MOL_PROPERTY
Angle
SciTegic.value.DoubleValue
3.478

@<SCITEGIC>MOL_PROPERTY
Pdih
SciTegic.value.DoubleValue
9.415

@<SCITEGIC>MOL_PROPERTY
Idih
SciTegic.value.DoubleValue
0.000

@<SCITEGIC>MOL_PROPERTY
Tether
SciTegic.value.DoubleValue
0.000

@<TRIPOS>MOLECULE
guest-5_confgen4.mol2 : confsearch ligand conformer 754
          22          22           1
SMALL
USER_CHARGES
 
@<TRIPOS>ATOM
       1    C1      19.986512   21.290470   22.172183 C.3        1 MOL1        -0.1685
       2    H1      19.731485   20.971164   21.152569 H          1 MOL1         0.0832
       3    H2      19.999977   22.388794   22.151998 H          1 MOL1         0.0832
       4    C2      21.404893   20.810586   22.564054 C.3        1 MOL1        -0.1685
       5    H3      22.139532   21.359291   21.959007 H          1 MOL1         0.0832
       6    H4      21.608739   21.090066   23.606751 H          1 MOL1         0.0832
       7    C3      21.663078   19.297313   22.380544 C.3        1 MOL1        -0.1685
       8    H5      22.671928   19.074347   22.753821 H          1 MOL1         0.0832
       9    H6      21.680535   19.057517   21.308558 H          1 MOL1         0.0832
      10    C4      20.653711   18.369607   23.100071 C.3        1 MOL1        -0.1761
      11    H7      21.070315   17.353829   23.089072 H          1 MOL1         0.0832
      12    H8      20.556945   18.648607   24.157328 H          1 MOL1         0.0832
      13    C5      19.268224   18.351061   22.416179 C.3        1 MOL1         0.1218
      14    H9      19.416372   18.483789   21.334847 H          1 MOL1         0.0789
      15    C6      18.293867   19.444707   22.910005 C.3        1 MOL1        -0.1761
      16    H10     17.498994   19.543553   22.159502 H          1 MOL1         0.0832
      17    H11     17.799063   19.102578   23.828824 H          1 MOL1         0.0832
      18    C7      18.900658   20.844489   23.179191 C.3        1 MOL1        -0.1685
      19    H12     18.082025   21.576989   23.168804 H          1 MOL1         0.0832
      20    H13     19.311433   20.877247   24.197474 H          1 MOL1         0.0832
      21    O1      18.661572   17.084826   22.643861 O.3        1 MOL1        -0.5509
      22    H14     19.259198   16.411681   22.256129 H          1 MOL1         0.3779
@<TRIPOS>BOND
    1     1     2    1
    2     1     3    1
    3     1     4    1
    4     4     5    1
    5     4     6    1
    6     4     7    1
    7     7     8    1
    8     7     9    1
    9     7    10    1
   10    10    11    1
   11    10    12    1
   12    10    13    1
   13    13    14    1
   14    13    15    1
   15    15    16    1
   16    15    17    1
   17     1    18    1
   18    15    18    1
   19    18    19    1
   20    18    20    1
   21    13    21    1
   22    21    22    1
@<TRIPOS>SUBSTRUCTURE
       1 MOL1            1 RESIDUE      1      MOL     
@<SCITEGIC>MOL_PROPERTY
VConf Rank
SciTegic.value.IntegerValue
754

@<SCITEGIC>MOL_PROPERTY
Conf_Id
SciTegic.value.IntegerValue
144

@<SCITEGIC>MOL_PROPERTY
Delta U+W
SciTegic.value.DoubleValue
-3.291

@<SCITEGIC>MOL_PROPERTY
U+W
SciTegic.value.DoubleValue
3.132

@<SCITEGIC>MOL_PROPERTY
Grad RMS
SciTegic.value.DoubleValue
0.000000

@<SCITEGIC>MOL_PROPERTY
U
SciTegic.value.DoubleValue
5.411

@<SCITEGIC>MOL_PROPERTY
W
SciTegic.value.DoubleValue
-2.279

@<SCITEGIC>MOL_PROPERTY
W(PB)
SciTegic.value.DoubleValue
-4.300

@<SCITEGIC>MOL_PROPERTY
W(SA)
SciTegic.value.DoubleValue
2.021

@<SCITEGIC>MOL_PROPERTY
Valence
SciTegic.value.DoubleValue
11.909

@<SCITEGIC>MOL_PROPERTY
Coulomb
SciTegic.value.DoubleValue
-8.733

@<SCITEGIC>MOL_PROPERTY
VdW
SciTegic.value.DoubleValue
2.236

@<SCITEGIC>MOL_PROPERTY
VdW6
SciTegic.value.DoubleValue
-8.936

@<SCITEGIC>MOL_PROPERTY
VdW12
SciTegic.value.DoubleValue
11.172

@<SCITEGIC>MOL_PROPERTY
Bond
SciTegic.value.DoubleValue
0.223

@<SCITEGIC>MOL_PROPERTY
Angle
SciTegic.value.DoubleValue
2.457

@<SCITEGIC>MOL_PROPERTY
Pdih
SciTegic.value.DoubleValue
9.228

@<SCITEGIC>MOL_PROPERTY
Idih
SciTegic.value.DoubleValue
0.000

@<SCITEGIC>MOL_PROPERTY
Tether
SciTegic.value.DoubleValue
0.000

@<TRIPOS>MOLECULE
guest-5_confgen4.mol2 : confsearch ligand conformer 755
          22          22           1
SMALL
USER_CHARGES
 
@<TRIPOS>ATOM
       1    C1      19.943257   20.342455   21.110673 C.3        1 MOL1        -0.1685
       2    H1      20.157579   20.644778   20.076478 H          1 MOL1         0.0832
       3    H2      19.137072   21.002176   21.459264 H          1 MOL1         0.0832
       4    C2      21.227565   20.552678   21.946397 C.3        1 MOL1        -0.1685
       5    H3      21.894668   19.689873   21.814812 H          1 MOL1         0.0832
       6    H4      21.778163   21.412863   21.541527 H          1 MOL1         0.0832
       7    C3      20.994644   20.803605   23.455936 C.3        1 MOL1        -0.1685
       8    H5      20.773230   21.868391   23.611251 H          1 MOL1         0.0832
       9    H6      21.939529   20.615489   23.983971 H          1 MOL1         0.0832
      10    C4      19.870092   19.974884   24.124326 C.3        1 MOL1        -0.1761
      11    H7      20.034874   19.999388   25.210014 H          1 MOL1         0.0832
      12    H8      18.906875   20.474379   23.958160 H          1 MOL1         0.0832
      13    C5      19.772920   18.507322   23.650604 C.3        1 MOL1         0.1218
      14    H9      20.779298   18.124536   23.428912 H          1 MOL1         0.0789
      15    C6      18.870562   18.344857   22.406284 C.3        1 MOL1        -0.1761
      16    H10     18.639402   17.279124   22.276243 H          1 MOL1         0.0832
      17    H11     17.909148   18.844316   22.583229 H          1 MOL1         0.0832
      18    C7      19.477203   18.866997   21.082248 C.3        1 MOL1        -0.1685
      19    H12     20.318493   18.224264   20.788904 H          1 MOL1         0.0832
      20    H13     18.723629   18.752927   20.291108 H          1 MOL1         0.0832
      21    O1      19.209251   17.734803   24.702128 O.3        1 MOL1        -0.5509
      22    H14     18.318619   18.105519   24.870958 H          1 MOL1         0.3779
@<TRIPOS>BOND
    1     1     2    1
    2     1     3    1
    3     1     4    1
    4     4     5    1
    5     4     6    1
    6     4     7    1
    7     7     8    1
    8     7     9    1
    9     7    10    1
   10    10    11    1
   11    10    12    1
   12    10    13    1
   13    13    14    1
   14    13    15    1
   15    15    16    1
   16    15    17    1
   17     1    18    1
   18    15    18    1
   19    18    19    1
   20    18    20    1
   21    13    21    1
   22    21    22    1
@<TRIPOS>SUBSTRUCTURE
       1 MOL1            1 RESIDUE      1      MOL     
@<SCITEGIC>MOL_PROPERTY
VConf Rank
SciTegic.value.IntegerValue
755

@<SCITEGIC>MOL_PROPERTY
Conf_Id
SciTegic.value.IntegerValue
76

@<SCITEGIC>MOL_PROPERTY
Delta U+W
SciTegic.value.DoubleValue
-3.175

@<SCITEGIC>MOL_PROPERTY
U+W
SciTegic.value.DoubleValue
3.248

@<SCITEGIC>MOL_PROPERTY
Grad RMS
SciTegic.value.DoubleValue
0.000000

@<SCITEGIC>MOL_PROPERTY
U
SciTegic.value.DoubleValue
5.336

@<SCITEGIC>MOL_PROPERTY
W
SciTegic.value.DoubleValue
-2.088

@<SCITEGIC>MOL_PROPERTY
W(PB)
SciTegic.value.DoubleValue
-4.098

@<SCITEGIC>MOL_PROPERTY
W(SA)
SciTegic.value.DoubleValue
2.010

@<SCITEGIC>MOL_PROPERTY
Valence
SciTegic.value.DoubleValue
12.390

@<SCITEGIC>MOL_PROPERTY
Coulomb
SciTegic.value.DoubleValue
-9.270

@<SCITEGIC>MOL_PROPERTY
VdW
SciTegic.value.DoubleValue
2.216

@<SCITEGIC>MOL_PROPERTY
VdW6
SciTegic.value.DoubleValue
-8.967

@<SCITEGIC>MOL_PROPERTY
VdW12
SciTegic.value.DoubleValue
11.183

@<SCITEGIC>MOL_PROPERTY
Bond
SciTegic.value.DoubleValue
0.218

@<SCITEGIC>MOL_PROPERTY
Angle
SciTegic.value.DoubleValue
2.426

@<SCITEGIC>MOL_PROPERTY
Pdih
SciTegic.value.DoubleValue
9.745

@<SCITEGIC>MOL_PROPERTY
Idih
SciTegic.value.DoubleValue
0.000

@<SCITEGIC>MOL_PROPERTY
Tether
SciTegic.value.DoubleValue
0.000

@<TRIPOS>MOLECULE
guest-5_confgen4.mol2 : confsearch ligand conformer 756
          22          22           1
SMALL
USER_CHARGES
 
@<TRIPOS>ATOM
       1    C1      21.546028   18.405034   22.607786 C.3        1 MOL1        -0.1685
       2    H1      22.080346   17.950240   23.453036 H          1 MOL1         0.0832
       3    H2      22.003026   17.980933   21.703294 H          1 MOL1         0.0832
       4    C2      21.807627   19.930011   22.633948 C.3        1 MOL1        -0.1685
       5    H3      21.847111   20.277384   23.675223 H          1 MOL1         0.0832
       6    H4      22.811951   20.109102   22.226464 H          1 MOL1         0.0832
       7    C3      20.786394   20.782687   21.845551 C.3        1 MOL1        -0.1685
       8    H5      20.472222   20.270141   20.926079 H          1 MOL1         0.0832
       9    H6      21.288445   21.705041   21.523840 H          1 MOL1         0.0832
      10    C4      19.557210   21.187362   22.698443 C.3        1 MOL1        -0.1761
      11    H7      19.902429   21.630900   23.641104 H          1 MOL1         0.0832
      12    H8      19.016999   21.988042   22.176429 H          1 MOL1         0.0832
      13    C5      18.547455   20.061723   23.018488 C.3        1 MOL1         0.1218
      14    H9      17.850474   20.464602   23.767489 H          1 MOL1         0.0789
      15    C6      19.164869   18.772962   23.617139 C.3        1 MOL1        -0.1761
      16    H10     19.722016   19.017055   24.530859 H          1 MOL1         0.0832
      17    H11     18.337126   18.127865   23.938821 H          1 MOL1         0.0832
      18    C7      20.064167   17.961583   22.648560 C.3        1 MOL1        -0.1685
      19    H12     20.036905   16.903832   22.943250 H          1 MOL1         0.0832
      20    H13     19.647179   17.991190   21.633333 H          1 MOL1         0.0832
      21    O1      17.804668   19.749097   21.844369 O.3        1 MOL1        -0.5509
      22    H14     17.217572   19.001024   22.076722 H          1 MOL1         0.3779
@<TRIPOS>BOND
    1     1     2    1
    2     1     3    1
    3     1     4    1
    4     4     5    1
    5     4     6    1
    6     4     7    1
    7     7     8    1
    8     7     9    1
    9     7    10    1
   10    10    11    1
   11    10    12    1
   12    10    13    1
   13    13    14    1
   14    13    15    1
   15    15    16    1
   16    15    17    1
   17     1    18    1
   18    15    18    1
   19    18    19    1
   20    18    20    1
   21    13    21    1
   22    21    22    1
@<TRIPOS>SUBSTRUCTURE
       1 MOL1            1 RESIDUE      1      MOL     
@<SCITEGIC>MOL_PROPERTY
VConf Rank
SciTegic.value.IntegerValue
756

@<SCITEGIC>MOL_PROPERTY
Conf_Id
SciTegic.value.IntegerValue
95

@<SCITEGIC>MOL_PROPERTY
Delta U+W
SciTegic.value.DoubleValue
-2.289

@<SCITEGIC>MOL_PROPERTY
U+W
SciTegic.value.DoubleValue
4.134

@<SCITEGIC>MOL_PROPERTY
Grad RMS
SciTegic.value.DoubleValue
0.000000

@<SCITEGIC>MOL_PROPERTY
U
SciTegic.value.DoubleValue
6.373

@<SCITEGIC>MOL_PROPERTY
W
SciTegic.value.DoubleValue
-2.240

@<SCITEGIC>MOL_PROPERTY
W(PB)
SciTegic.value.DoubleValue
-4.254

@<SCITEGIC>MOL_PROPERTY
W(SA)
SciTegic.value.DoubleValue
2.015

@<SCITEGIC>MOL_PROPERTY
Valence
SciTegic.value.DoubleValue
12.093

@<SCITEGIC>MOL_PROPERTY
Coulomb
SciTegic.value.DoubleValue
-8.058

@<SCITEGIC>MOL_PROPERTY
VdW
SciTegic.value.DoubleValue
2.339

@<SCITEGIC>MOL_PROPERTY
VdW6
SciTegic.value.DoubleValue
-9.683

@<SCITEGIC>MOL_PROPERTY
VdW12
SciTegic.value.DoubleValue
12.022

@<SCITEGIC>MOL_PROPERTY
Bond
SciTegic.value.DoubleValue
0.268

@<SCITEGIC>MOL_PROPERTY
Angle
SciTegic.value.DoubleValue
3.005

@<SCITEGIC>MOL_PROPERTY
Pdih
SciTegic.value.DoubleValue
8.820

@<SCITEGIC>MOL_PROPERTY
Idih
SciTegic.value.DoubleValue
0.000

@<SCITEGIC>MOL_PROPERTY
Tether
SciTegic.value.DoubleValue
0.000

@<TRIPOS>MOLECULE
guest-5_confgen4.mol2 : confsearch ligand conformer 757
          22          22           1
SMALL
USER_CHARGES
 
@<TRIPOS>ATOM
       1    C1      18.597397   20.436411   23.658568 C.3        1 MOL1        -0.1685
       2    H1      17.982837   21.294093   23.352868 H          1 MOL1         0.0832
       3    H2      18.184445   20.101563   24.619889 H          1 MOL1         0.0832
       4    C2      20.045624   20.933693   23.881452 C.3        1 MOL1        -0.1685
       5    H3      20.282713   21.712332   23.143895 H          1 MOL1         0.0832
       6    H4      20.086071   21.433523   24.858863 H          1 MOL1         0.0832
       7    C3      21.130936   19.833027   23.835086 C.3        1 MOL1        -0.1685
       8    H5      20.768674   18.903939   24.295936 H          1 MOL1         0.0832
       9    H6      21.979839   20.166241   24.447261 H          1 MOL1         0.0832
      10    C4      21.656544   19.572228   22.400852 C.3        1 MOL1        -0.1761
      11    H7      21.929369   20.529858   21.938892 H          1 MOL1         0.0832
      12    H8      22.593527   19.004340   22.468301 H          1 MOL1         0.0832
      13    C5      20.698229   18.819547   21.449622 C.3        1 MOL1         0.1218
      14    H9      21.141621   18.872618   20.444790 H          1 MOL1         0.0789
      15    C6      19.271038   19.413831   21.348203 C.3        1 MOL1        -0.1761
      16    H10     19.323683   20.462231   21.027932 H          1 MOL1         0.0832
      17    H11     18.753872   18.879334   20.540935 H          1 MOL1         0.0832
      18    C7      18.412711   19.291467   22.634182 C.3        1 MOL1        -0.1685
      19    H12     17.352541   19.261869   22.348911 H          1 MOL1         0.0832
      20    H13     18.608138   18.327908   23.123041 H          1 MOL1         0.0832
      21    O1      20.631716   17.449421   21.833322 O.3        1 MOL1        -0.5509
      22    H14     21.554809   17.130341   21.898692 H          1 MOL1         0.3779
@<TRIPOS>BOND
    1     1     2    1
    2     1     3    1
    3     1     4    1
    4     4     5    1
    5     4     6    1
    6     4     7    1
    7     7     8    1
    8     7     9    1
    9     7    10    1
   10    10    11    1
   11    10    12    1
   12    10    13    1
   13    13    14    1
   14    13    15    1
   15    15    16    1
   16    15    17    1
   17     1    18    1
   18    15    18    1
   19    18    19    1
   20    18    20    1
   21    13    21    1
   22    21    22    1
@<TRIPOS>SUBSTRUCTURE
       1 MOL1            1 RESIDUE      1      MOL     
@<SCITEGIC>MOL_PROPERTY
VConf Rank
SciTegic.value.IntegerValue
757

@<SCITEGIC>MOL_PROPERTY
Conf_Id
SciTegic.value.IntegerValue
41

@<SCITEGIC>MOL_PROPERTY
Delta U+W
SciTegic.value.DoubleValue
-2.114

@<SCITEGIC>MOL_PROPERTY
U+W
SciTegic.value.DoubleValue
4.310

@<SCITEGIC>MOL_PROPERTY
Grad RMS
SciTegic.value.DoubleValue
0.000000

@<SCITEGIC>MOL_PROPERTY
U
SciTegic.value.DoubleValue
6.598

@<SCITEGIC>MOL_PROPERTY
W
SciTegic.value.DoubleValue
-2.289

@<SCITEGIC>MOL_PROPERTY
W(PB)
SciTegic.value.DoubleValue
-4.294

@<SCITEGIC>MOL_PROPERTY
W(SA)
SciTegic.value.DoubleValue
2.005

@<SCITEGIC>MOL_PROPERTY
Valence
SciTegic.value.DoubleValue
12.082

@<SCITEGIC>MOL_PROPERTY
Coulomb
SciTegic.value.DoubleValue
-7.801

@<SCITEGIC>MOL_PROPERTY
VdW
SciTegic.value.DoubleValue
2.317

@<SCITEGIC>MOL_PROPERTY
VdW6
SciTegic.value.DoubleValue
-9.658

@<SCITEGIC>MOL_PROPERTY
VdW12
SciTegic.value.DoubleValue
11.975

@<SCITEGIC>MOL_PROPERTY
Bond
SciTegic.value.DoubleValue
0.267

@<SCITEGIC>MOL_PROPERTY
Angle
SciTegic.value.DoubleValue
3.051

@<SCITEGIC>MOL_PROPERTY
Pdih
SciTegic.value.DoubleValue
8.764

@<SCITEGIC>MOL_PROPERTY
Idih
SciTegic.value.DoubleValue
0.000

@<SCITEGIC>MOL_PROPERTY
Tether
SciTegic.value.DoubleValue
0.000

@<TRIPOS>MOLECULE
guest-5_confgen4.mol2 : confsearch ligand conformer 758
          22          22           1
SMALL
USER_CHARGES
 
@<TRIPOS>ATOM
       1    C1      21.710104   19.898903   22.800693 C.3        1 MOL1        -0.1685
       2    H1      22.758314   20.037856   23.098178 H          1 MOL1         0.0832
       3    H2      21.693722   19.938289   21.702806 H          1 MOL1         0.0832
       4    C2      20.888888   21.061650   23.401534 C.3        1 MOL1        -0.1685
       5    H3      20.866103   20.968495   24.495784 H          1 MOL1         0.0832
       6    H4      21.410306   22.005116   23.190452 H          1 MOL1         0.0832
       7    C3      19.445575   21.176136   22.863981 C.3        1 MOL1        -0.1685
       8    H5      19.471580   21.479884   21.809016 H          1 MOL1         0.0832
       9    H6      18.951147   22.000500   23.395102 H          1 MOL1         0.0832
      10    C4      18.577229   19.899285   23.027730 C.3        1 MOL1        -0.1761
      11    H7      18.613173   19.550071   24.067449 H          1 MOL1         0.0832
      12    H8      17.532545   20.182684   22.846337 H          1 MOL1         0.0832
      13    C5      18.905631   18.727170   22.067349 C.3        1 MOL1         0.1218
      14    H9      18.035332   18.055105   22.080953 H          1 MOL1         0.0789
      15    C6      20.128757   17.856382   22.455718 C.3        1 MOL1        -0.1761
      16    H10     19.760871   16.984870   23.012664 H          1 MOL1         0.0832
      17    H11     20.579641   17.445445   21.542862 H          1 MOL1         0.0832
      18    C7      21.243501   18.515541   23.305280 C.3        1 MOL1        -0.1685
      19    H12     20.919170   18.591583   24.351913 H          1 MOL1         0.0832
      20    H13     22.106041   17.835364   23.313177 H          1 MOL1         0.0832
      21    O1      19.060743   19.204324   20.733488 O.3        1 MOL1        -0.5509
      22    H14     19.225513   18.420980   20.170343 H          1 MOL1         0.3779
@<TRIPOS>BOND
    1     1     2    1
    2     1     3    1
    3     1     4    1
    4     4     5    1
    5     4     6    1
    6     4     7    1
    7     7     8    1
    8     7     9    1
    9     7    10    1
   10    10    11    1
   11    10    12    1
   12    10    13    1
   13    13    14    1
   14    13    15    1
   15    15    16    1
   16    15    17    1
   17     1    18    1
   18    15    18    1
   19    18    19    1
   20    18    20    1
   21    13    21    1
   22    21    22    1
@<TRIPOS>SUBSTRUCTURE
       1 MOL1            1 RESIDUE      1      MOL     
@<SCITEGIC>MOL_PROPERTY
VConf Rank
SciTegic.value.IntegerValue
758

@<SCITEGIC>MOL_PROPERTY
Conf_Id
SciTegic.value.IntegerValue
104

@<SCITEGIC>MOL_PROPERTY
Delta U+W
SciTegic.value.DoubleValue
-1.172

@<SCITEGIC>MOL_PROPERTY
U+W
SciTegic.value.DoubleValue
5.252

@<SCITEGIC>MOL_PROPERTY
Grad RMS
SciTegic.value.DoubleValue
0.000000

@<SCITEGIC>MOL_PROPERTY
U
SciTegic.value.DoubleValue
7.482

@<SCITEGIC>MOL_PROPERTY
W
SciTegic.value.DoubleValue
-2.230

@<SCITEGIC>MOL_PROPERTY
W(PB)
SciTegic.value.DoubleValue
-4.220

@<SCITEGIC>MOL_PROPERTY
W(SA)
SciTegic.value.DoubleValue
1.990

@<SCITEGIC>MOL_PROPERTY
Valence
SciTegic.value.DoubleValue
12.309

@<SCITEGIC>MOL_PROPERTY
Coulomb
SciTegic.value.DoubleValue
-7.084

@<SCITEGIC>MOL_PROPERTY
VdW
SciTegic.value.DoubleValue
2.258

@<SCITEGIC>MOL_PROPERTY
VdW6
SciTegic.value.DoubleValue
-9.770

@<SCITEGIC>MOL_PROPERTY
VdW12
SciTegic.value.DoubleValue
12.028

@<SCITEGIC>MOL_PROPERTY
Bond
SciTegic.value.DoubleValue
0.284

@<SCITEGIC>MOL_PROPERTY
Angle
SciTegic.value.DoubleValue
3.491

@<SCITEGIC>MOL_PROPERTY
Pdih
SciTegic.value.DoubleValue
8.535

@<SCITEGIC>MOL_PROPERTY
Idih
SciTegic.value.DoubleValue
0.000

@<SCITEGIC>MOL_PROPERTY
Tether
SciTegic.value.DoubleValue
0.000

@<TRIPOS>MOLECULE
guest-5_confgen4.mol2 : confsearch ligand conformer 759
          22          22           1
SMALL
USER_CHARGES
 
@<TRIPOS>ATOM
       1    C1      19.974117   19.674757   21.028745 C.3        1 MOL1        -0.1685
       2    H1      19.543928   18.668439   20.935237 H          1 MOL1         0.0832
       3    H2      20.082568   20.053479   20.003198 H          1 MOL1         0.0832
       4    C2      21.382786   19.616372   21.662566 C.3        1 MOL1        -0.1685
       5    H3      22.103609   19.320973   20.887711 H          1 MOL1         0.0832
       6    H4      21.688144   20.626973   21.963861 H          1 MOL1         0.0832
       7    C3      21.543145   18.638081   22.853745 C.3        1 MOL1        -0.1685
       8    H5      22.373470   18.988556   23.482268 H          1 MOL1         0.0832
       9    H6      21.865797   17.663717   22.462034 H          1 MOL1         0.0832
      10    C4      20.296405   18.393578   23.746527 C.3        1 MOL1        -0.1761
      11    H7      19.625682   17.687146   23.240523 H          1 MOL1         0.0832
      12    H8      20.627224   17.875112   24.655787 H          1 MOL1         0.0832
      13    C5      19.479941   19.635570   24.171760 C.3        1 MOL1         0.1218
      14    H9      18.914644   19.361964   25.074235 H          1 MOL1         0.0789
      15    C6      18.443783   20.065450   23.108816 C.3        1 MOL1        -0.1761
      16    H10     17.791442   19.210642   22.887875 H          1 MOL1         0.0832
      17    H11     17.791467   20.827236   23.555369 H          1 MOL1         0.0832
      18    C7      19.008327   20.622872   21.778642 C.3        1 MOL1        -0.1685
      19    H12     18.158319   20.842089   21.118231 H          1 MOL1         0.0832
      20    H13     19.499131   21.588981   21.958154 H          1 MOL1         0.0832
      21    O1      20.343769   20.718830   24.479199 O.3        1 MOL1        -0.5509
      22    H14     20.866011   20.846702   23.662377 H          1 MOL1         0.3779
@<TRIPOS>BOND
    1     1     2    1
    2     1     3    1
    3     1     4    1
    4     4     5    1
    5     4     6    1
    6     4     7    1
    7     7     8    1
    8     7     9    1
    9     7    10    1
   10    10    11    1
   11    10    12    1
   12    10    13    1
   13    13    14    1
   14    13    15    1
   15    15    16    1
   16    15    17    1
   17     1    18    1
   18    15    18    1
   19    18    19    1
   20    18    20    1
   21    13    21    1
   22    21    22    1
@<TRIPOS>SUBSTRUCTURE
       1 MOL1            1 RESIDUE      1      MOL     
@<SCITEGIC>MOL_PROPERTY
VConf Rank
SciTegic.value.IntegerValue
759

@<SCITEGIC>MOL_PROPERTY
Conf_Id
SciTegic.value.IntegerValue
99

@<SCITEGIC>MOL_PROPERTY
Delta U+W
SciTegic.value.DoubleValue
-3.852

@<SCITEGIC>MOL_PROPERTY
U+W
SciTegic.value.DoubleValue
2.572

@<SCITEGIC>MOL_PROPERTY
Grad RMS
SciTegic.value.DoubleValue
0.000000

@<SCITEGIC>MOL_PROPERTY
U
SciTegic.value.DoubleValue
3.922

@<SCITEGIC>MOL_PROPERTY
W
SciTegic.value.DoubleValue
-1.350

@<SCITEGIC>MOL_PROPERTY
W(PB)
SciTegic.value.DoubleValue
-3.345

@<SCITEGIC>MOL_PROPERTY
W(SA)
SciTegic.value.DoubleValue
1.995

@<SCITEGIC>MOL_PROPERTY
Valence
SciTegic.value.DoubleValue
12.571

@<SCITEGIC>MOL_PROPERTY
Coulomb
SciTegic.value.DoubleValue
-10.581

@<SCITEGIC>MOL_PROPERTY
VdW
SciTegic.value.DoubleValue
1.932

@<SCITEGIC>MOL_PROPERTY
VdW6
SciTegic.value.DoubleValue
-10.483

@<SCITEGIC>MOL_PROPERTY
VdW12
SciTegic.value.DoubleValue
12.415

@<SCITEGIC>MOL_PROPERTY
Bond
SciTegic.value.DoubleValue
0.268

@<SCITEGIC>MOL_PROPERTY
Angle
SciTegic.value.DoubleValue
3.728

@<SCITEGIC>MOL_PROPERTY
Pdih
SciTegic.value.DoubleValue
8.575

@<SCITEGIC>MOL_PROPERTY
Idih
SciTegic.value.DoubleValue
0.000

@<SCITEGIC>MOL_PROPERTY
Tether
SciTegic.value.DoubleValue
0.000

@<TRIPOS>MOLECULE
guest-5_confgen4.mol2 : confsearch ligand conformer 760
          22          22           1
SMALL
USER_CHARGES
 
@<TRIPOS>ATOM
       1    C1      19.674307   19.631809   21.059068 C.3        1 MOL1        -0.1685
       2    H1      18.944059   19.571583   20.240287 H          1 MOL1         0.0832
       3    H2      20.634800   19.835889   20.567277 H          1 MOL1         0.0832
       4    C2      19.716691   18.244308   21.763977 C.3        1 MOL1        -0.1685
       5    H3      19.004910   17.583483   21.250199 H          1 MOL1         0.0832
       6    H4      20.697835   17.773978   21.614978 H          1 MOL1         0.0832
       7    C3      19.362053   18.238211   23.272932 C.3        1 MOL1        -0.1685
       8    H5      19.239367   17.195394   23.595744 H          1 MOL1         0.0832
       9    H6      18.374202   18.691202   23.422999 H          1 MOL1         0.0832
      10    C4      20.396242   18.909868   24.218532 C.3        1 MOL1        -0.1761
      11    H7      19.880944   19.191024   25.145981 H          1 MOL1         0.0832
      12    H8      21.136295   18.154751   24.515376 H          1 MOL1         0.0832
      13    C5      21.172679   20.143649   23.695953 C.3        1 MOL1         0.1218
      14    H9      21.669033   20.599982   24.564381 H          1 MOL1         0.0789
      15    C6      20.325019   21.253954   23.027492 C.3        1 MOL1        -0.1761
      16    H10     19.801482   21.812323   23.814177 H          1 MOL1         0.0832
      17    H11     21.020241   21.973481   22.574784 H          1 MOL1         0.0832
      18    C7      19.282901   20.836005   21.953198 C.3        1 MOL1        -0.1685
      19    H12     18.314846   20.642685   22.431805 H          1 MOL1         0.0832
      20    H13     19.101830   21.704288   21.305106 H          1 MOL1         0.0832
      21    O1      22.192749   19.721714   22.804510 O.3        1 MOL1        -0.5509
      22    H14     21.703386   19.326322   22.055430 H          1 MOL1         0.3779
@<TRIPOS>BOND
    1     1     2    1
    2     1     3    1
    3     1     4    1
    4     4     5    1
    5     4     6    1
    6     4     7    1
    7     7     8    1
    8     7     9    1
    9     7    10    1
   10    10    11    1
   11    10    12    1
   12    10    13    1
   13    13    14    1
   14    13    15    1
   15    15    16    1
   16    15    17    1
   17     1    18    1
   18    15    18    1
   19    18    19    1
   20    18    20    1
   21    13    21    1
   22    21    22    1
@<TRIPOS>SUBSTRUCTURE
       1 MOL1            1 RESIDUE      1      MOL     
@<SCITEGIC>MOL_PROPERTY
VConf Rank
SciTegic.value.IntegerValue
760

@<SCITEGIC>MOL_PROPERTY
Conf_Id
SciTegic.value.IntegerValue
98

@<SCITEGIC>MOL_PROPERTY
Delta U+W
SciTegic.value.DoubleValue
0.930

@<SCITEGIC>MOL_PROPERTY
U+W
SciTegic.value.DoubleValue
7.353

@<SCITEGIC>MOL_PROPERTY
Grad RMS
SciTegic.value.DoubleValue
0.000000

@<SCITEGIC>MOL_PROPERTY
U
SciTegic.value.DoubleValue
8.455

@<SCITEGIC>MOL_PROPERTY
W
SciTegic.value.DoubleValue
-1.102

@<SCITEGIC>MOL_PROPERTY
W(PB)
SciTegic.value.DoubleValue
-3.101

@<SCITEGIC>MOL_PROPERTY
W(SA)
SciTegic.value.DoubleValue
2.000

@<SCITEGIC>MOL_PROPERTY
Valence
SciTegic.value.DoubleValue
15.601

@<SCITEGIC>MOL_PROPERTY
Coulomb
SciTegic.value.DoubleValue
-10.573

@<SCITEGIC>MOL_PROPERTY
VdW
SciTegic.value.DoubleValue
3.427

@<SCITEGIC>MOL_PROPERTY
VdW6
SciTegic.value.DoubleValue
-11.360

@<SCITEGIC>MOL_PROPERTY
VdW12
SciTegic.value.DoubleValue
14.787

@<SCITEGIC>MOL_PROPERTY
Bond
SciTegic.value.DoubleValue
0.471

@<SCITEGIC>MOL_PROPERTY
Angle
SciTegic.value.DoubleValue
5.445

@<SCITEGIC>MOL_PROPERTY
Pdih
SciTegic.value.DoubleValue
9.685

@<SCITEGIC>MOL_PROPERTY
Idih
SciTegic.value.DoubleValue
0.000

@<SCITEGIC>MOL_PROPERTY
Tether
SciTegic.value.DoubleValue
0.000

@<TRIPOS>MOLECULE
guest-5_confgen4.mol2 : confsearch ligand conformer 761
          22          22           1
SMALL
USER_CHARGES
 
@<TRIPOS>ATOM
       1    C1      21.655162   19.184038   23.034530 C.3        1 MOL1        -0.1685
       2    H1      21.670827   18.544515   22.142597 H          1 MOL1         0.0832
       3    H2      22.679678   19.148020   23.429221 H          1 MOL1         0.0832
       4    C2      20.697012   18.582381   24.093830 C.3        1 MOL1        -0.1685
       5    H3      21.062319   17.574973   24.335813 H          1 MOL1         0.0832
       6    H4      20.771926   19.157895   25.026458 H          1 MOL1         0.0832
       7    C3      19.202834   18.468935   23.682484 C.3        1 MOL1        -0.1685
       8    H5      18.618856   19.264926   24.162466 H          1 MOL1         0.0832
       9    H6      18.802921   17.534517   24.099099 H          1 MOL1         0.0832
      10    C4      18.939253   18.484310   22.153433 C.3        1 MOL1        -0.1761
      11    H7      19.573048   17.729628   21.671367 H          1 MOL1         0.0832
      12    H8      17.910495   18.142210   21.977331 H          1 MOL1         0.0832
      13    C5      19.143726   19.853843   21.441787 C.3        1 MOL1         0.1218
      14    H9      19.724963   19.676072   20.525475 H          1 MOL1         0.0789
      15    C6      19.867966   20.945264   22.269152 C.3        1 MOL1        -0.1761
      16    H10     19.841821   21.890234   21.711114 H          1 MOL1         0.0832
      17    H11     19.307229   21.142728   23.190657 H          1 MOL1         0.0832
      18    C7      21.346151   20.641692   22.619321 C.3        1 MOL1        -0.1685
      19    H12     21.974886   20.890870   21.753632 H          1 MOL1         0.0832
      20    H13     21.659626   21.319929   23.424554 H          1 MOL1         0.0832
      21    O1      17.867245   20.369218   21.081006 O.3        1 MOL1        -0.5509
      22    H14     18.027309   21.199602   20.586010 H          1 MOL1         0.3779
@<TRIPOS>BOND
    1     1     2    1
    2     1     3    1
    3     1     4    1
    4     4     5    1
    5     4     6    1
    6     4     7    1
    7     7     8    1
    8     7     9    1
    9     7    10    1
   10    10    11    1
   11    10    12    1
   12    10    13    1
   13    13    14    1
   14    13    15    1
   15    15    16    1
   16    15    17    1
   17     1    18    1
   18    15    18    1
   19    18    19    1
   20    18    20    1
   21    13    21    1
   22    21    22    1
@<TRIPOS>SUBSTRUCTURE
       1 MOL1            1 RESIDUE      1      MOL     
@<SCITEGIC>MOL_PROPERTY
VConf Rank
SciTegic.value.IntegerValue
761

@<SCITEGIC>MOL_PROPERTY
Conf_Id
SciTegic.value.IntegerValue
141

@<SCITEGIC>MOL_PROPERTY
Delta U+W
SciTegic.value.DoubleValue
0.000

@<SCITEGIC>MOL_PROPERTY
U+W
SciTegic.value.DoubleValue
6.423

@<SCITEGIC>MOL_PROPERTY
Grad RMS
SciTegic.value.DoubleValue
0.000000

@<SCITEGIC>MOL_PROPERTY
U
SciTegic.value.DoubleValue
8.781

@<SCITEGIC>MOL_PROPERTY
W
SciTegic.value.DoubleValue
-2.358

@<SCITEGIC>MOL_PROPERTY
W(PB)
SciTegic.value.DoubleValue
-4.373

@<SCITEGIC>MOL_PROPERTY
W(SA)
SciTegic.value.DoubleValue
2.015

@<SCITEGIC>MOL_PROPERTY
Valence
SciTegic.value.DoubleValue
13.328

@<SCITEGIC>MOL_PROPERTY
Coulomb
SciTegic.value.DoubleValue
-8.387

@<SCITEGIC>MOL_PROPERTY
VdW
SciTegic.value.DoubleValue
3.840

@<SCITEGIC>MOL_PROPERTY
VdW6
SciTegic.value.DoubleValue
-9.744

@<SCITEGIC>MOL_PROPERTY
VdW12
SciTegic.value.DoubleValue
13.584

@<SCITEGIC>MOL_PROPERTY
Bond
SciTegic.value.DoubleValue
0.436

@<SCITEGIC>MOL_PROPERTY
Angle
SciTegic.value.DoubleValue
3.478

@<SCITEGIC>MOL_PROPERTY
Pdih
SciTegic.value.DoubleValue
9.415

@<SCITEGIC>MOL_PROPERTY
Idih
SciTegic.value.DoubleValue
0.000

@<SCITEGIC>MOL_PROPERTY
Tether
SciTegic.value.DoubleValue
0.000

@<TRIPOS>MOLECULE
guest-5_confgen4.mol2 : confsearch ligand conformer 762
          22          22           1
SMALL
USER_CHARGES
 
@<TRIPOS>ATOM
       1    C1      19.525846   18.627777   21.286630 C.3        1 MOL1        -0.1685
       2    H1      19.966456   19.386474   20.625684 H          1 MOL1         0.0832
       3    H2      19.184464   17.815143   20.630895 H          1 MOL1         0.0832
       4    C2      18.285839   19.188667   22.023814 C.3        1 MOL1        -0.1685
       5    H3      17.484921   19.349092   21.289206 H          1 MOL1         0.0832
       6    H4      17.903429   18.431122   22.721501 H          1 MOL1         0.0832
       7    C3      18.515046   20.514977   22.784536 C.3        1 MOL1        -0.1685
       8    H5      17.587917   20.769493   23.316025 H          1 MOL1         0.0832
       9    H6      18.678601   21.326368   22.062141 H          1 MOL1         0.0832
      10    C4      19.679054   20.490862   23.805164 C.3        1 MOL1        -0.1761
      11    H7      19.590900   21.389037   24.430460 H          1 MOL1         0.0832
      12    H8      19.580387   19.634586   24.484910 H          1 MOL1         0.0832
      13    C5      21.067317   20.486177   23.126687 C.3        1 MOL1         0.1218
      14    H9      20.995735   21.061413   22.192438 H          1 MOL1         0.0789
      15    C6      21.612329   19.079552   22.789546 C.3        1 MOL1        -0.1761
      16    H10     22.411891   19.203172   22.047745 H          1 MOL1         0.0832
      17    H11     22.092039   18.652577   23.680435 H          1 MOL1         0.0832
      18    C7      20.588424   18.049567   22.250293 C.3        1 MOL1        -0.1685
      19    H12     21.145247   17.256377   21.732972 H          1 MOL1         0.0832
      20    H13     20.086518   17.554730   23.092870 H          1 MOL1         0.0832
      21    O1      22.000867   21.125663   23.988523 O.3        1 MOL1        -0.5509
      22    H14     21.675831   22.039683   24.128298 H          1 MOL1         0.3779
@<TRIPOS>BOND
    1     1     2    1
    2     1     3    1
    3     1     4    1
    4     4     5    1
    5     4     6    1
    6     4     7    1
    7     7     8    1
    8     7     9    1
    9     7    10    1
   10    10    11    1
   11    10    12    1
   12    10    13    1
   13    13    14    1
   14    13    15    1
   15    15    16    1
   16    15    17    1
   17     1    18    1
   18    15    18    1
   19    18    19    1
   20    18    20    1
   21    13    21    1
   22    21    22    1
@<TRIPOS>SUBSTRUCTURE
       1 MOL1            1 RESIDUE      1      MOL     
@<SCITEGIC>MOL_PROPERTY
VConf Rank
SciTegic.value.IntegerValue
762

@<SCITEGIC>MOL_PROPERTY
Conf_Id
SciTegic.value.IntegerValue
144

@<SCITEGIC>MOL_PROPERTY
Delta U+W
SciTegic.value.DoubleValue
-3.291

@<SCITEGIC>MOL_PROPERTY
U+W
SciTegic.value.DoubleValue
3.132

@<SCITEGIC>MOL_PROPERTY
Grad RMS
SciTegic.value.DoubleValue
0.000000

@<SCITEGIC>MOL_PROPERTY
U
SciTegic.value.DoubleValue
5.411

@<SCITEGIC>MOL_PROPERTY
W
SciTegic.value.DoubleValue
-2.279

@<SCITEGIC>MOL_PROPERTY
W(PB)
SciTegic.value.DoubleValue
-4.300

@<SCITEGIC>MOL_PROPERTY
W(SA)
SciTegic.value.DoubleValue
2.021

@<SCITEGIC>MOL_PROPERTY
Valence
SciTegic.value.DoubleValue
11.909

@<SCITEGIC>MOL_PROPERTY
Coulomb
SciTegic.value.DoubleValue
-8.733

@<SCITEGIC>MOL_PROPERTY
VdW
SciTegic.value.DoubleValue
2.236

@<SCITEGIC>MOL_PROPERTY
VdW6
SciTegic.value.DoubleValue
-8.936

@<SCITEGIC>MOL_PROPERTY
VdW12
SciTegic.value.DoubleValue
11.172

@<SCITEGIC>MOL_PROPERTY
Bond
SciTegic.value.DoubleValue
0.223

@<SCITEGIC>MOL_PROPERTY
Angle
SciTegic.value.DoubleValue
2.457

@<SCITEGIC>MOL_PROPERTY
Pdih
SciTegic.value.DoubleValue
9.228

@<SCITEGIC>MOL_PROPERTY
Idih
SciTegic.value.DoubleValue
0.000

@<SCITEGIC>MOL_PROPERTY
Tether
SciTegic.value.DoubleValue
0.000

@<TRIPOS>MOLECULE
guest-5_confgen4.mol2 : confsearch ligand conformer 763
          22          22           1
SMALL
USER_CHARGES
 
@<TRIPOS>ATOM
       1    C1      20.692071   19.013477   21.188364 C.3        1 MOL1        -0.1685
       2    H1      21.210257   18.425511   20.418514 H          1 MOL1         0.0832
       3    H2      20.454004   19.979937   20.723647 H          1 MOL1         0.0832
       4    C2      21.659594   19.198747   22.380693 C.3        1 MOL1        -0.1685
       5    H3      21.628745   18.305079   23.018800 H          1 MOL1         0.0832
       6    H4      22.688415   19.250389   21.998779 H          1 MOL1         0.0832
       7    C3      21.406805   20.460307   23.241209 C.3        1 MOL1        -0.1685
       8    H5      21.898171   21.320822   22.766879 H          1 MOL1         0.0832
       9    H6      21.912711   20.323050   24.206733 H          1 MOL1         0.0832
      10    C4      19.925283   20.831690   23.496763 C.3        1 MOL1        -0.1761
      11    H7      19.893196   21.509841   24.360217 H          1 MOL1         0.0832
      12    H8      19.547928   21.414403   22.646503 H          1 MOL1         0.0832
      13    C5      18.986804   19.630450   23.749494 C.3        1 MOL1         0.1218
      14    H9      19.532667   18.844014   24.289884 H          1 MOL1         0.0789
      15    C6      18.401419   19.050478   22.441850 C.3        1 MOL1        -0.1761
      16    H10     17.565430   18.384991   22.695583 H          1 MOL1         0.0832
      17    H11     17.971168   19.862468   21.841315 H          1 MOL1         0.0832
      18    C7      19.401013   18.251427   21.572341 C.3        1 MOL1        -0.1685
      19    H12     19.667608   17.318817   22.088182 H          1 MOL1         0.0832
      20    H13     18.886795   17.946919   20.650581 H          1 MOL1         0.0832
      21    O1      17.902134   20.072544   24.554637 O.3        1 MOL1        -0.5509
      22    H14     17.443853   20.770263   24.042459 H          1 MOL1         0.3779
@<TRIPOS>BOND
    1     1     2    1
    2     1     3    1
    3     1     4    1
    4     4     5    1
    5     4     6    1
    6     4     7    1
    7     7     8    1
    8     7     9    1
    9     7    10    1
   10    10    11    1
   11    10    12    1
   12    10    13    1
   13    13    14    1
   14    13    15    1
   15    15    16    1
   16    15    17    1
   17     1    18    1
   18    15    18    1
   19    18    19    1
   20    18    20    1
   21    13    21    1
   22    21    22    1
@<TRIPOS>SUBSTRUCTURE
       1 MOL1            1 RESIDUE      1      MOL     
@<SCITEGIC>MOL_PROPERTY
VConf Rank
SciTegic.value.IntegerValue
763

@<SCITEGIC>MOL_PROPERTY
Conf_Id
SciTegic.value.IntegerValue
76

@<SCITEGIC>MOL_PROPERTY
Delta U+W
SciTegic.value.DoubleValue
-3.175

@<SCITEGIC>MOL_PROPERTY
U+W
SciTegic.value.DoubleValue
3.248

@<SCITEGIC>MOL_PROPERTY
Grad RMS
SciTegic.value.DoubleValue
0.000000

@<SCITEGIC>MOL_PROPERTY
U
SciTegic.value.DoubleValue
5.336

@<SCITEGIC>MOL_PROPERTY
W
SciTegic.value.DoubleValue
-2.088

@<SCITEGIC>MOL_PROPERTY
W(PB)
SciTegic.value.DoubleValue
-4.098

@<SCITEGIC>MOL_PROPERTY
W(SA)
SciTegic.value.DoubleValue
2.010

@<SCITEGIC>MOL_PROPERTY
Valence
SciTegic.value.DoubleValue
12.390

@<SCITEGIC>MOL_PROPERTY
Coulomb
SciTegic.value.DoubleValue
-9.270

@<SCITEGIC>MOL_PROPERTY
VdW
SciTegic.value.DoubleValue
2.216

@<SCITEGIC>MOL_PROPERTY
VdW6
SciTegic.value.DoubleValue
-8.967

@<SCITEGIC>MOL_PROPERTY
VdW12
SciTegic.value.DoubleValue
11.183

@<SCITEGIC>MOL_PROPERTY
Bond
SciTegic.value.DoubleValue
0.218

@<SCITEGIC>MOL_PROPERTY
Angle
SciTegic.value.DoubleValue
2.426

@<SCITEGIC>MOL_PROPERTY
Pdih
SciTegic.value.DoubleValue
9.745

@<SCITEGIC>MOL_PROPERTY
Idih
SciTegic.value.DoubleValue
0.000

@<SCITEGIC>MOL_PROPERTY
Tether
SciTegic.value.DoubleValue
0.000

@<TRIPOS>MOLECULE
guest-5_confgen4.mol2 : confsearch ligand conformer 764
          22          22           1
SMALL
USER_CHARGES
 
@<TRIPOS>ATOM
       1    C1      20.856213   20.375884   24.180249 C.3        1 MOL1        -0.1685
       2    H1      21.680704   19.986995   24.793244 H          1 MOL1         0.0832
       3    H2      20.642340   21.380138   24.570821 H          1 MOL1         0.0832
       4    C2      19.618193   19.475549   24.406915 C.3        1 MOL1        -0.1685
       5    H3      19.940317   18.432007   24.524113 H          1 MOL1         0.0832
       6    H4      19.167976   19.753673   25.369586 H          1 MOL1         0.0832
       7    C3      18.537336   19.559537   23.304085 C.3        1 MOL1        -0.1685
       8    H5      18.438517   20.586683   22.927200 H          1 MOL1         0.0832
       9    H6      17.568790   19.306282   23.755828 H          1 MOL1         0.0832
      10    C4      18.789089   18.567319   22.140382 C.3        1 MOL1        -0.1761
      11    H7      18.955222   17.563482   22.551752 H          1 MOL1         0.0832
      12    H8      17.872944   18.491889   21.540047 H          1 MOL1         0.0832
      13    C5      19.955681   18.913967   21.187495 C.3        1 MOL1         0.1218
      14    H9      20.112438   18.035140   20.545477 H          1 MOL1         0.0789
      15    C6      21.306683   19.217359   21.882647 C.3        1 MOL1        -0.1761
      16    H10     21.603240   18.365007   22.507489 H          1 MOL1         0.0832
      17    H11     22.072581   19.290939   21.099848 H          1 MOL1         0.0832
      18    C7      21.339390   20.523782   22.717754 C.3        1 MOL1        -0.1685
      19    H12     22.369820   20.903443   22.740016 H          1 MOL1         0.0832
      20    H13     20.752505   21.305401   22.217676 H          1 MOL1         0.0832
      21    O1      19.575590   20.007197   20.357795 O.3        1 MOL1        -0.5509
      22    H14     20.356651   20.226137   19.809806 H          1 MOL1         0.3779
@<TRIPOS>BOND
    1     1     2    1
    2     1     3    1
    3     1     4    1
    4     4     5    1
    5     4     6    1
    6     4     7    1
    7     7     8    1
    8     7     9    1
    9     7    10    1
   10    10    11    1
   11    10    12    1
   12    10    13    1
   13    13    14    1
   14    13    15    1
   15    15    16    1
   16    15    17    1
   17     1    18    1
   18    15    18    1
   19    18    19    1
   20    18    20    1
   21    13    21    1
   22    21    22    1
@<TRIPOS>SUBSTRUCTURE
       1 MOL1            1 RESIDUE      1      MOL     
@<SCITEGIC>MOL_PROPERTY
VConf Rank
SciTegic.value.IntegerValue
764

@<SCITEGIC>MOL_PROPERTY
Conf_Id
SciTegic.value.IntegerValue
95

@<SCITEGIC>MOL_PROPERTY
Delta U+W
SciTegic.value.DoubleValue
-2.289

@<SCITEGIC>MOL_PROPERTY
U+W
SciTegic.value.DoubleValue
4.134

@<SCITEGIC>MOL_PROPERTY
Grad RMS
SciTegic.value.DoubleValue
0.000000

@<SCITEGIC>MOL_PROPERTY
U
SciTegic.value.DoubleValue
6.373

@<SCITEGIC>MOL_PROPERTY
W
SciTegic.value.DoubleValue
-2.240

@<SCITEGIC>MOL_PROPERTY
W(PB)
SciTegic.value.DoubleValue
-4.254

@<SCITEGIC>MOL_PROPERTY
W(SA)
SciTegic.value.DoubleValue
2.015

@<SCITEGIC>MOL_PROPERTY
Valence
SciTegic.value.DoubleValue
12.093

@<SCITEGIC>MOL_PROPERTY
Coulomb
SciTegic.value.DoubleValue
-8.058

@<SCITEGIC>MOL_PROPERTY
VdW
SciTegic.value.DoubleValue
2.339

@<SCITEGIC>MOL_PROPERTY
VdW6
SciTegic.value.DoubleValue
-9.683

@<SCITEGIC>MOL_PROPERTY
VdW12
SciTegic.value.DoubleValue
12.022

@<SCITEGIC>MOL_PROPERTY
Bond
SciTegic.value.DoubleValue
0.268

@<SCITEGIC>MOL_PROPERTY
Angle
SciTegic.value.DoubleValue
3.005

@<SCITEGIC>MOL_PROPERTY
Pdih
SciTegic.value.DoubleValue
8.820

@<SCITEGIC>MOL_PROPERTY
Idih
SciTegic.value.DoubleValue
0.000

@<SCITEGIC>MOL_PROPERTY
Tether
SciTegic.value.DoubleValue
0.000

@<TRIPOS>MOLECULE
guest-5_confgen4.mol2 : confsearch ligand conformer 765
          22          22           1
SMALL
USER_CHARGES
 
@<TRIPOS>ATOM
       1    C1      19.796524   21.499907   22.406978 C.3        1 MOL1        -0.1685
       2    H1      19.637563   22.288788   23.154743 H          1 MOL1         0.0832
       3    H2      19.824716   22.011701   21.435350 H          1 MOL1         0.0832
       4    C2      18.574991   20.550573   22.437853 C.3        1 MOL1        -0.1685
       5    H3      18.218459   20.446563   23.471558 H          1 MOL1         0.0832
       6    H4      17.754351   21.035761   21.892012 H          1 MOL1         0.0832
       7    C3      18.819535   19.148046   21.834007 C.3        1 MOL1        -0.1685
       8    H5      19.474719   19.207506   20.954224 H          1 MOL1         0.0832
       9    H6      17.857447   18.760931   21.472130 H          1 MOL1         0.0832
      10    C4      19.374376   18.139368   22.871326 C.3        1 MOL1        -0.1761
      11    H7      18.746152   18.167611   23.771011 H          1 MOL1         0.0832
      12    H8      19.261107   17.124283   22.469139 H          1 MOL1         0.0832
      13    C5      20.849106   18.334991   23.291609 C.3        1 MOL1         0.1218
      14    H9      21.027946   17.664318   24.144436 H          1 MOL1         0.0789
      15    C6      21.216592   19.766932   23.755108 C.3        1 MOL1        -0.1761
      16    H10     20.575171   20.065264   24.594194 H          1 MOL1         0.0832
      17    H11     22.236931   19.725583   24.157635 H          1 MOL1         0.0832
      18    C7      21.180163   20.849269   22.644856 C.3        1 MOL1        -0.1685
      19    H12     21.887555   21.647373   22.907235 H          1 MOL1         0.0832
      20    H13     21.554112   20.429260   21.701790 H          1 MOL1         0.0832
      21    O1      21.701787   17.932188   22.224099 O.3        1 MOL1        -0.5509
      22    H14     21.417034   17.033601   21.960200 H          1 MOL1         0.3779
@<TRIPOS>BOND
    1     1     2    1
    2     1     3    1
    3     1     4    1
    4     4     5    1
    5     4     6    1
    6     4     7    1
    7     7     8    1
    8     7     9    1
    9     7    10    1
   10    10    11    1
   11    10    12    1
   12    10    13    1
   13    13    14    1
   14    13    15    1
   15    15    16    1
   16    15    17    1
   17     1    18    1
   18    15    18    1
   19    18    19    1
   20    18    20    1
   21    13    21    1
   22    21    22    1
@<TRIPOS>SUBSTRUCTURE
       1 MOL1            1 RESIDUE      1      MOL     
@<SCITEGIC>MOL_PROPERTY
VConf Rank
SciTegic.value.IntegerValue
765

@<SCITEGIC>MOL_PROPERTY
Conf_Id
SciTegic.value.IntegerValue
41

@<SCITEGIC>MOL_PROPERTY
Delta U+W
SciTegic.value.DoubleValue
-2.114

@<SCITEGIC>MOL_PROPERTY
U+W
SciTegic.value.DoubleValue
4.310

@<SCITEGIC>MOL_PROPERTY
Grad RMS
SciTegic.value.DoubleValue
0.000000

@<SCITEGIC>MOL_PROPERTY
U
SciTegic.value.DoubleValue
6.598

@<SCITEGIC>MOL_PROPERTY
W
SciTegic.value.DoubleValue
-2.289

@<SCITEGIC>MOL_PROPERTY
W(PB)
SciTegic.value.DoubleValue
-4.294

@<SCITEGIC>MOL_PROPERTY
W(SA)
SciTegic.value.DoubleValue
2.005

@<SCITEGIC>MOL_PROPERTY
Valence
SciTegic.value.DoubleValue
12.082

@<SCITEGIC>MOL_PROPERTY
Coulomb
SciTegic.value.DoubleValue
-7.801

@<SCITEGIC>MOL_PROPERTY
VdW
SciTegic.value.DoubleValue
2.317

@<SCITEGIC>MOL_PROPERTY
VdW6
SciTegic.value.DoubleValue
-9.658

@<SCITEGIC>MOL_PROPERTY
VdW12
SciTegic.value.DoubleValue
11.975

@<SCITEGIC>MOL_PROPERTY
Bond
SciTegic.value.DoubleValue
0.267

@<SCITEGIC>MOL_PROPERTY
Angle
SciTegic.value.DoubleValue
3.051

@<SCITEGIC>MOL_PROPERTY
Pdih
SciTegic.value.DoubleValue
8.764

@<SCITEGIC>MOL_PROPERTY
Idih
SciTegic.value.DoubleValue
0.000

@<SCITEGIC>MOL_PROPERTY
Tether
SciTegic.value.DoubleValue
0.000

@<TRIPOS>MOLECULE
guest-5_confgen4.mol2 : confsearch ligand conformer 766
          22          22           1
SMALL
USER_CHARGES
 
@<TRIPOS>ATOM
       1    C1      20.956174   19.987228   24.063026 C.3        1 MOL1        -0.1685
       2    H1      21.455813   20.524019   24.880808 H          1 MOL1         0.0832
       3    H2      20.868854   18.941628   24.389021 H          1 MOL1         0.0832
       4    C2      21.851525   20.095523   22.808433 C.3        1 MOL1        -0.1685
       5    H3      21.875286   21.137881   22.462736 H          1 MOL1         0.0832
       6    H4      22.883684   19.848644   23.091729 H          1 MOL1         0.0832
       7    C3      21.437382   19.174445   21.639962 C.3        1 MOL1        -0.1685
       8    H5      21.617041   18.127546   21.918556 H          1 MOL1         0.0832
       9    H6      22.111772   19.374023   20.796462 H          1 MOL1         0.0832
      10    C4      19.975024   19.349623   21.148022 C.3        1 MOL1        -0.1761
      11    H7      19.770832   20.408157   20.942911 H          1 MOL1         0.0832
      12    H8      19.886457   18.838035   20.181059 H          1 MOL1         0.0832
      13    C5      18.873582   18.770954   22.073225 C.3        1 MOL1         0.1218
      14    H9      17.963283   18.682571   21.462633 H          1 MOL1         0.0789
      15    C6      18.489301   19.644038   23.296006 C.3        1 MOL1        -0.1761
      16    H10     17.611666   20.243641   23.021607 H          1 MOL1         0.0832
      17    H11     18.148462   18.990166   24.109487 H          1 MOL1         0.0832
      18    C7      19.559610   20.613759   23.855452 C.3        1 MOL1        -0.1685
      19    H12     19.640541   21.495319   23.205286 H          1 MOL1         0.0832
      20    H13     19.197572   20.992444   24.820959 H          1 MOL1         0.0832
      21    O1      19.227585   17.461762   22.510966 O.3        1 MOL1        -0.5509
      22    H14     18.482441   17.134223   23.054462 H          1 MOL1         0.3779
@<TRIPOS>BOND
    1     1     2    1
    2     1     3    1
    3     1     4    1
    4     4     5    1
    5     4     6    1
    6     4     7    1
    7     7     8    1
    8     7     9    1
    9     7    10    1
   10    10    11    1
   11    10    12    1
   12    10    13    1
   13    13    14    1
   14    13    15    1
   15    15    16    1
   16    15    17    1
   17     1    18    1
   18    15    18    1
   19    18    19    1
   20    18    20    1
   21    13    21    1
   22    21    22    1
@<TRIPOS>SUBSTRUCTURE
       1 MOL1            1 RESIDUE      1      MOL     
@<SCITEGIC>MOL_PROPERTY
VConf Rank
SciTegic.value.IntegerValue
766

@<SCITEGIC>MOL_PROPERTY
Conf_Id
SciTegic.value.IntegerValue
104

@<SCITEGIC>MOL_PROPERTY
Delta U+W
SciTegic.value.DoubleValue
-1.172

@<SCITEGIC>MOL_PROPERTY
U+W
SciTegic.value.DoubleValue
5.252

@<SCITEGIC>MOL_PROPERTY
Grad RMS
SciTegic.value.DoubleValue
0.000000

@<SCITEGIC>MOL_PROPERTY
U
SciTegic.value.DoubleValue
7.482

@<SCITEGIC>MOL_PROPERTY
W
SciTegic.value.DoubleValue
-2.230

@<SCITEGIC>MOL_PROPERTY
W(PB)
SciTegic.value.DoubleValue
-4.220

@<SCITEGIC>MOL_PROPERTY
W(SA)
SciTegic.value.DoubleValue
1.990

@<SCITEGIC>MOL_PROPERTY
Valence
SciTegic.value.DoubleValue
12.309

@<SCITEGIC>MOL_PROPERTY
Coulomb
SciTegic.value.DoubleValue
-7.084

@<SCITEGIC>MOL_PROPERTY
VdW
SciTegic.value.DoubleValue
2.258

@<SCITEGIC>MOL_PROPERTY
VdW6
SciTegic.value.DoubleValue
-9.770

@<SCITEGIC>MOL_PROPERTY
VdW12
SciTegic.value.DoubleValue
12.028

@<SCITEGIC>MOL_PROPERTY
Bond
SciTegic.value.DoubleValue
0.284

@<SCITEGIC>MOL_PROPERTY
Angle
SciTegic.value.DoubleValue
3.491

@<SCITEGIC>MOL_PROPERTY
Pdih
SciTegic.value.DoubleValue
8.535

@<SCITEGIC>MOL_PROPERTY
Idih
SciTegic.value.DoubleValue
0.000

@<SCITEGIC>MOL_PROPERTY
Tether
SciTegic.value.DoubleValue
0.000

@<TRIPOS>MOLECULE
guest-5_confgen4.mol2 : confsearch ligand conformer 767
          22          22           1
SMALL
USER_CHARGES
 
@<TRIPOS>ATOM
       1    C1      18.470415   19.933711   22.451622 C.3        1 MOL1        -0.1685
       2    H1      18.305273   19.065283   21.799668 H          1 MOL1         0.0832
       3    H2      17.506458   20.457822   22.506702 H          1 MOL1         0.0832
       4    C2      19.500856   20.903404   21.829230 C.3        1 MOL1        -0.1685
       5    H3      18.995574   21.506561   21.062327 H          1 MOL1         0.0832
       6    H4      19.826066   21.625523   22.589572 H          1 MOL1         0.0832
       7    C3      20.735175   20.238427   21.168976 C.3        1 MOL1        -0.1685
       8    H5      21.564898   20.958695   21.178387 H          1 MOL1         0.0832
       9    H6      20.510901   20.066674   20.107312 H          1 MOL1         0.0832
      10    C4      21.223124   18.891353   21.767725 C.3        1 MOL1        -0.1761
      11    H7      20.576945   18.081975   21.403970 H          1 MOL1         0.0832
      12    H8      22.215922   18.675648   21.352003 H          1 MOL1         0.0832
      13    C5      21.316561   18.797781   23.308016 C.3        1 MOL1         0.1218
      14    H9      22.020307   17.986718   23.544233 H          1 MOL1         0.0789
      15    C6      19.969905   18.427578   23.969632 C.3        1 MOL1        -0.1761
      16    H10     19.608554   17.488825   23.530053 H          1 MOL1         0.0832
      17    H11     20.158477   18.204882   25.027976 H          1 MOL1         0.0832
      18    C7      18.843640   19.487396   23.885333 C.3        1 MOL1        -0.1685
      19    H12     17.947443   19.064083   24.358987 H          1 MOL1         0.0832
      20    H13     19.111042   20.363992   24.490769 H          1 MOL1         0.0832
      21    O1      21.811797   20.011380   23.852156 O.3        1 MOL1        -0.5509
      22    H14     21.184377   20.689809   23.532210 H          1 MOL1         0.3779
@<TRIPOS>BOND
    1     1     2    1
    2     1     3    1
    3     1     4    1
    4     4     5    1
    5     4     6    1
    6     4     7    1
    7     7     8    1
    8     7     9    1
    9     7    10    1
   10    10    11    1
   11    10    12    1
   12    10    13    1
   13    13    14    1
   14    13    15    1
   15    15    16    1
   16    15    17    1
   17     1    18    1
   18    15    18    1
   19    18    19    1
   20    18    20    1
   21    13    21    1
   22    21    22    1
@<TRIPOS>SUBSTRUCTURE
       1 MOL1            1 RESIDUE      1      MOL     
@<SCITEGIC>MOL_PROPERTY
VConf Rank
SciTegic.value.IntegerValue
767

@<SCITEGIC>MOL_PROPERTY
Conf_Id
SciTegic.value.IntegerValue
99

@<SCITEGIC>MOL_PROPERTY
Delta U+W
SciTegic.value.DoubleValue
-3.852

@<SCITEGIC>MOL_PROPERTY
U+W
SciTegic.value.DoubleValue
2.572

@<SCITEGIC>MOL_PROPERTY
Grad RMS
SciTegic.value.DoubleValue
0.000000

@<SCITEGIC>MOL_PROPERTY
U
SciTegic.value.DoubleValue
3.922

@<SCITEGIC>MOL_PROPERTY
W
SciTegic.value.DoubleValue
-1.350

@<SCITEGIC>MOL_PROPERTY
W(PB)
SciTegic.value.DoubleValue
-3.345

@<SCITEGIC>MOL_PROPERTY
W(SA)
SciTegic.value.DoubleValue
1.995

@<SCITEGIC>MOL_PROPERTY
Valence
SciTegic.value.DoubleValue
12.571

@<SCITEGIC>MOL_PROPERTY
Coulomb
SciTegic.value.DoubleValue
-10.581

@<SCITEGIC>MOL_PROPERTY
VdW
SciTegic.value.DoubleValue
1.932

@<SCITEGIC>MOL_PROPERTY
VdW6
SciTegic.value.DoubleValue
-10.483

@<SCITEGIC>MOL_PROPERTY
VdW12
SciTegic.value.DoubleValue
12.415

@<SCITEGIC>MOL_PROPERTY
Bond
SciTegic.value.DoubleValue
0.268

@<SCITEGIC>MOL_PROPERTY
Angle
SciTegic.value.DoubleValue
3.728

@<SCITEGIC>MOL_PROPERTY
Pdih
SciTegic.value.DoubleValue
8.575

@<SCITEGIC>MOL_PROPERTY
Idih
SciTegic.value.DoubleValue
0.000

@<SCITEGIC>MOL_PROPERTY
Tether
SciTegic.value.DoubleValue
0.000

@<TRIPOS>MOLECULE
guest-5_confgen4.mol2 : confsearch ligand conformer 768
          22          22           1
SMALL
USER_CHARGES
 
@<TRIPOS>ATOM
       1    C1      19.027124   18.402863   23.193432 C.3        1 MOL1        -0.1685
       2    H1      18.822034   17.411101   23.619622 H          1 MOL1         0.0832
       3    H2      18.038040   18.853613   23.036614 H          1 MOL1         0.0832
       4    C2      19.745181   18.196332   21.827566 C.3        1 MOL1        -0.1685
       5    H3      19.850741   17.115176   21.662491 H          1 MOL1         0.0832
       6    H4      19.105217   18.546822   21.006800 H          1 MOL1         0.0832
       7    C3      21.152195   18.833517   21.696963 C.3        1 MOL1        -0.1685
       8    H5      21.620079   18.454739   20.778084 H          1 MOL1         0.0832
       9    H6      21.799316   18.471111   22.505335 H          1 MOL1         0.0832
      10    C4      21.194973   20.386093   21.646878 C.3        1 MOL1        -0.1761
      11    H7      22.198949   20.711408   21.948447 H          1 MOL1         0.0832
      12    H8      21.089730   20.702319   20.600493 H          1 MOL1         0.0832
      13    C5      20.153803   21.174292   22.479262 C.3        1 MOL1         0.1218
      14    H9      20.484745   22.222631   22.494698 H          1 MOL1         0.0789
      15    C6      19.981523   20.735184   23.954270 C.3        1 MOL1        -0.1761
      16    H10     20.841957   21.101957   24.528614 H          1 MOL1         0.0832
      17    H11     19.112702   21.270841   24.359510 H          1 MOL1         0.0832
      18    C7      19.807711   19.220370   24.254150 C.3        1 MOL1        -0.1685
      19    H12     20.789427   18.761904   24.426230 H          1 MOL1         0.0832
      20    H13     19.286582   19.126067   25.216572 H          1 MOL1         0.0832
      21    O1      18.896289   21.141779   21.822876 O.3        1 MOL1        -0.5509
      22    H14     18.647552   20.195782   21.835278 H          1 MOL1         0.3779
@<TRIPOS>BOND
    1     1     2    1
    2     1     3    1
    3     1     4    1
    4     4     5    1
    5     4     6    1
    6     4     7    1
    7     7     8    1
    8     7     9    1
    9     7    10    1
   10    10    11    1
   11    10    12    1
   12    10    13    1
   13    13    14    1
   14    13    15    1
   15    15    16    1
   16    15    17    1
   17     1    18    1
   18    15    18    1
   19    18    19    1
   20    18    20    1
   21    13    21    1
   22    21    22    1
@<TRIPOS>SUBSTRUCTURE
       1 MOL1            1 RESIDUE      1      MOL     
@<SCITEGIC>MOL_PROPERTY
VConf Rank
SciTegic.value.IntegerValue
768

@<SCITEGIC>MOL_PROPERTY
Conf_Id
SciTegic.value.IntegerValue
98

@<SCITEGIC>MOL_PROPERTY
Delta U+W
SciTegic.value.DoubleValue
0.930

@<SCITEGIC>MOL_PROPERTY
U+W
SciTegic.value.DoubleValue
7.353

@<SCITEGIC>MOL_PROPERTY
Grad RMS
SciTegic.value.DoubleValue
0.000000

@<SCITEGIC>MOL_PROPERTY
U
SciTegic.value.DoubleValue
8.455

@<SCITEGIC>MOL_PROPERTY
W
SciTegic.value.DoubleValue
-1.102

@<SCITEGIC>MOL_PROPERTY
W(PB)
SciTegic.value.DoubleValue
-3.101

@<SCITEGIC>MOL_PROPERTY
W(SA)
SciTegic.value.DoubleValue
2.000

@<SCITEGIC>MOL_PROPERTY
Valence
SciTegic.value.DoubleValue
15.601

@<SCITEGIC>MOL_PROPERTY
Coulomb
SciTegic.value.DoubleValue
-10.573

@<SCITEGIC>MOL_PROPERTY
VdW
SciTegic.value.DoubleValue
3.427

@<SCITEGIC>MOL_PROPERTY
VdW6
SciTegic.value.DoubleValue
-11.360

@<SCITEGIC>MOL_PROPERTY
VdW12
SciTegic.value.DoubleValue
14.787

@<SCITEGIC>MOL_PROPERTY
Bond
SciTegic.value.DoubleValue
0.471

@<SCITEGIC>MOL_PROPERTY
Angle
SciTegic.value.DoubleValue
5.445

@<SCITEGIC>MOL_PROPERTY
Pdih
SciTegic.value.DoubleValue
9.685

@<SCITEGIC>MOL_PROPERTY
Idih
SciTegic.value.DoubleValue
0.000

@<SCITEGIC>MOL_PROPERTY
Tether
SciTegic.value.DoubleValue
0.000

@<TRIPOS>MOLECULE
guest-5_confgen4.mol2 : confsearch ligand conformer 769
          22          22           1
SMALL
USER_CHARGES
 
@<TRIPOS>ATOM
       1    C1      20.238632   19.738466   24.347015 C.3        1 MOL1        -0.1685
       2    H1      20.038912   20.806517   24.191576 H          1 MOL1         0.0832
       3    H2      20.365230   19.627101   25.432502 H          1 MOL1         0.0832
       4    C2      21.568014   19.347582   23.652672 C.3        1 MOL1        -0.1685
       5    H3      22.363637   19.966434   24.089573 H          1 MOL1         0.0832
       6    H4      21.824546   18.310225   23.907045 H          1 MOL1         0.0832
       7    C3      21.613277   19.520936   22.109122 C.3        1 MOL1        -0.1685
       8    H5      21.512594   18.544558   21.617630 H          1 MOL1         0.0832
       9    H6      22.616227   19.874084   21.833421 H          1 MOL1         0.0832
      10    C4      20.562902   20.503674   21.527189 C.3        1 MOL1        -0.1761
      11    H7      20.625253   21.457466   22.065724 H          1 MOL1         0.0832
      12    H8      20.850244   20.743954   20.494674 H          1 MOL1         0.0832
      13    C5      19.087580   20.006481   21.537027 C.3        1 MOL1         0.1218
      14    H9      18.457104   20.823886   21.915731 H          1 MOL1         0.0789
      15    C6      18.804402   18.743641   22.388675 C.3        1 MOL1        -0.1761
      16    H10     17.767953   18.424788   22.217902 H          1 MOL1         0.0832
      17    H11     19.421563   17.910912   22.030536 H          1 MOL1         0.0832
      18    C7      19.003011   18.914018   23.915545 C.3        1 MOL1        -0.1685
      19    H12     18.108912   19.391440   24.339182 H          1 MOL1         0.0832
      20    H13     19.057493   17.916819   24.373035 H          1 MOL1         0.0832
      21    O1      18.701832   19.713577   20.198901 O.3        1 MOL1        -0.5509
      22    H14     17.755935   19.459244   20.226662 H          1 MOL1         0.3779
@<TRIPOS>BOND
    1     1     2    1
    2     1     3    1
    3     1     4    1
    4     4     5    1
    5     4     6    1
    6     4     7    1
    7     7     8    1
    8     7     9    1
    9     7    10    1
   10    10    11    1
   11    10    12    1
   12    10    13    1
   13    13    14    1
   14    13    15    1
   15    15    16    1
   16    15    17    1
   17     1    18    1
   18    15    18    1
   19    18    19    1
   20    18    20    1
   21    13    21    1
   22    21    22    1
@<TRIPOS>SUBSTRUCTURE
       1 MOL1            1 RESIDUE      1      MOL     
@<SCITEGIC>MOL_PROPERTY
VConf Rank
SciTegic.value.IntegerValue
769

@<SCITEGIC>MOL_PROPERTY
Conf_Id
SciTegic.value.IntegerValue
141

@<SCITEGIC>MOL_PROPERTY
Delta U+W
SciTegic.value.DoubleValue
0.000

@<SCITEGIC>MOL_PROPERTY
U+W
SciTegic.value.DoubleValue
6.423

@<SCITEGIC>MOL_PROPERTY
Grad RMS
SciTegic.value.DoubleValue
0.000000

@<SCITEGIC>MOL_PROPERTY
U
SciTegic.value.DoubleValue
8.781

@<SCITEGIC>MOL_PROPERTY
W
SciTegic.value.DoubleValue
-2.358

@<SCITEGIC>MOL_PROPERTY
W(PB)
SciTegic.value.DoubleValue
-4.373

@<SCITEGIC>MOL_PROPERTY
W(SA)
SciTegic.value.DoubleValue
2.015

@<SCITEGIC>MOL_PROPERTY
Valence
SciTegic.value.DoubleValue
13.328

@<SCITEGIC>MOL_PROPERTY
Coulomb
SciTegic.value.DoubleValue
-8.387

@<SCITEGIC>MOL_PROPERTY
VdW
SciTegic.value.DoubleValue
3.840

@<SCITEGIC>MOL_PROPERTY
VdW6
SciTegic.value.DoubleValue
-9.744

@<SCITEGIC>MOL_PROPERTY
VdW12
SciTegic.value.DoubleValue
13.584

@<SCITEGIC>MOL_PROPERTY
Bond
SciTegic.value.DoubleValue
0.436

@<SCITEGIC>MOL_PROPERTY
Angle
SciTegic.value.DoubleValue
3.478

@<SCITEGIC>MOL_PROPERTY
Pdih
SciTegic.value.DoubleValue
9.415

@<SCITEGIC>MOL_PROPERTY
Idih
SciTegic.value.DoubleValue
0.000

@<SCITEGIC>MOL_PROPERTY
Tether
SciTegic.value.DoubleValue
0.000

@<TRIPOS>MOLECULE
guest-5_confgen4.mol2 : confsearch ligand conformer 770
          22          22           1
SMALL
USER_CHARGES
 
@<TRIPOS>ATOM
       1    C1      18.669312   18.634371   22.045439 C.3        1 MOL1        -0.1685
       2    H1      19.350125   17.772609   22.023808 H          1 MOL1         0.0832
       3    H2      17.687541   18.253670   21.732234 H          1 MOL1         0.0832
       4    C2      19.104693   19.709645   21.020800 C.3        1 MOL1        -0.1685
       5    H3      18.944808   19.313577   20.008663 H          1 MOL1         0.0832
       6    H4      18.444356   20.583369   21.107054 H          1 MOL1         0.0832
       7    C3      20.576907   20.168514   21.131958 C.3        1 MOL1        -0.1685
       8    H5      20.740574   20.973710   20.402780 H          1 MOL1         0.0832
       9    H6      21.239171   19.347390   20.825166 H          1 MOL1         0.0832
      10    C4      20.999786   20.676330   22.532128 C.3        1 MOL1        -0.1761
      11    H7      21.969750   21.179246   22.423825 H          1 MOL1         0.0832
      12    H8      20.299033   21.439262   22.895278 H          1 MOL1         0.0832
      13    C5      21.139127   19.534466   23.563805 C.3        1 MOL1         0.1218
      14    H9      21.484044   18.633829   23.035857 H          1 MOL1         0.0789
      15    C6      19.834391   19.185976   24.315812 C.3        1 MOL1        -0.1761
      16    H10     19.963725   18.190429   24.759668 H          1 MOL1         0.0832
      17    H11     19.705658   19.877017   25.159613 H          1 MOL1         0.0832
      18    C7      18.529380   19.192661   23.480979 C.3        1 MOL1        -0.1685
      19    H12     17.777473   18.601918   24.021797 H          1 MOL1         0.0832
      20    H13     18.125885   20.213475   23.438065 H          1 MOL1         0.0832
      21    O1      22.117905   19.904221   24.527388 O.3        1 MOL1        -0.5509
      22    H14     22.955414   20.046827   24.038655 H          1 MOL1         0.3779
@<TRIPOS>BOND
    1     1     2    1
    2     1     3    1
    3     1     4    1
    4     4     5    1
    5     4     6    1
    6     4     7    1
    7     7     8    1
    8     7     9    1
    9     7    10    1
   10    10    11    1
   11    10    12    1
   12    10    13    1
   13    13    14    1
   14    13    15    1
   15    15    16    1
   16    15    17    1
   17     1    18    1
   18    15    18    1
   19    18    19    1
   20    18    20    1
   21    13    21    1
   22    21    22    1
@<TRIPOS>SUBSTRUCTURE
       1 MOL1            1 RESIDUE      1      MOL     
@<SCITEGIC>MOL_PROPERTY
VConf Rank
SciTegic.value.IntegerValue
770

@<SCITEGIC>MOL_PROPERTY
Conf_Id
SciTegic.value.IntegerValue
144

@<SCITEGIC>MOL_PROPERTY
Delta U+W
SciTegic.value.DoubleValue
-3.291

@<SCITEGIC>MOL_PROPERTY
U+W
SciTegic.value.DoubleValue
3.132

@<SCITEGIC>MOL_PROPERTY
Grad RMS
SciTegic.value.DoubleValue
0.000000

@<SCITEGIC>MOL_PROPERTY
U
SciTegic.value.DoubleValue
5.411

@<SCITEGIC>MOL_PROPERTY
W
SciTegic.value.DoubleValue
-2.279

@<SCITEGIC>MOL_PROPERTY
W(PB)
SciTegic.value.DoubleValue
-4.300

@<SCITEGIC>MOL_PROPERTY
W(SA)
SciTegic.value.DoubleValue
2.021

@<SCITEGIC>MOL_PROPERTY
Valence
SciTegic.value.DoubleValue
11.909

@<SCITEGIC>MOL_PROPERTY
Coulomb
SciTegic.value.DoubleValue
-8.733

@<SCITEGIC>MOL_PROPERTY
VdW
SciTegic.value.DoubleValue
2.236

@<SCITEGIC>MOL_PROPERTY
VdW6
SciTegic.value.DoubleValue
-8.936

@<SCITEGIC>MOL_PROPERTY
VdW12
SciTegic.value.DoubleValue
11.172

@<SCITEGIC>MOL_PROPERTY
Bond
SciTegic.value.DoubleValue
0.223

@<SCITEGIC>MOL_PROPERTY
Angle
SciTegic.value.DoubleValue
2.457

@<SCITEGIC>MOL_PROPERTY
Pdih
SciTegic.value.DoubleValue
9.228

@<SCITEGIC>MOL_PROPERTY
Idih
SciTegic.value.DoubleValue
0.000

@<SCITEGIC>MOL_PROPERTY
Tether
SciTegic.value.DoubleValue
0.000

@<TRIPOS>MOLECULE
guest-5_confgen4.mol2 : confsearch ligand conformer 771
          22          22           1
SMALL
USER_CHARGES
 
@<TRIPOS>ATOM
       1    C1      18.654180   19.699250   23.806085 C.3        1 MOL1        -0.1685
       2    H1      18.018174   19.620833   24.698406 H          1 MOL1         0.0832
       3    H2      18.108946   20.339813   23.099627 H          1 MOL1         0.0832
       4    C2      18.843904   18.277532   23.227468 C.3        1 MOL1        -0.1685
       5    H3      19.646295   17.764205   23.774677 H          1 MOL1         0.0832
       6    H4      17.935521   17.690814   23.421376 H          1 MOL1         0.0832
       7    C3      19.132733   18.220494   21.707847 C.3        1 MOL1        -0.1685
       8    H5      18.180972   18.267253   21.161149 H          1 MOL1         0.0832
       9    H6      19.560722   17.235203   21.477535 H          1 MOL1         0.0832
      10    C4      20.066713   19.319857   21.144622 C.3        1 MOL1        -0.1761
      11    H7      20.442395   18.975285   20.171687 H          1 MOL1         0.0832
      12    H8      19.476445   20.220928   20.933558 H          1 MOL1         0.0832
      13    C5      21.258470   19.691551   22.055201 C.3        1 MOL1         0.1218
      14    H9      21.604580   18.796978   22.592244 H          1 MOL1         0.0789
      15    C6      20.904508   20.801578   23.070843 C.3        1 MOL1        -0.1761
      16    H10     21.835344   21.192839   23.502804 H          1 MOL1         0.0832
      17    H11     20.436791   21.643911   22.544723 H          1 MOL1         0.0832
      18    C7      19.987019   20.358394   24.235109 C.3        1 MOL1        -0.1685
      19    H12     20.538523   19.672072   24.892171 H          1 MOL1         0.0832
      20    H13     19.759759   21.241292   24.847998 H          1 MOL1         0.0832
      21    O1      22.314959   20.171814   21.234597 O.3        1 MOL1        -0.5509
      22    H14     21.969121   20.963731   20.773703 H          1 MOL1         0.3779
@<TRIPOS>BOND
    1     1     2    1
    2     1     3    1
    3     1     4    1
    4     4     5    1
    5     4     6    1
    6     4     7    1
    7     7     8    1
    8     7     9    1
    9     7    10    1
   10    10    11    1
   11    10    12    1
   12    10    13    1
   13    13    14    1
   14    13    15    1
   15    15    16    1
   16    15    17    1
   17     1    18    1
   18    15    18    1
   19    18    19    1
   20    18    20    1
   21    13    21    1
   22    21    22    1
@<TRIPOS>SUBSTRUCTURE
       1 MOL1            1 RESIDUE      1      MOL     
@<SCITEGIC>MOL_PROPERTY
VConf Rank
SciTegic.value.IntegerValue
771

@<SCITEGIC>MOL_PROPERTY
Conf_Id
SciTegic.value.IntegerValue
76

@<SCITEGIC>MOL_PROPERTY
Delta U+W
SciTegic.value.DoubleValue
-3.175

@<SCITEGIC>MOL_PROPERTY
U+W
SciTegic.value.DoubleValue
3.248

@<SCITEGIC>MOL_PROPERTY
Grad RMS
SciTegic.value.DoubleValue
0.000000

@<SCITEGIC>MOL_PROPERTY
U
SciTegic.value.DoubleValue
5.336

@<SCITEGIC>MOL_PROPERTY
W
SciTegic.value.DoubleValue
-2.088

@<SCITEGIC>MOL_PROPERTY
W(PB)
SciTegic.value.DoubleValue
-4.098

@<SCITEGIC>MOL_PROPERTY
W(SA)
SciTegic.value.DoubleValue
2.010

@<SCITEGIC>MOL_PROPERTY
Valence
SciTegic.value.DoubleValue
12.390

@<SCITEGIC>MOL_PROPERTY
Coulomb
SciTegic.value.DoubleValue
-9.270

@<SCITEGIC>MOL_PROPERTY
VdW
SciTegic.value.DoubleValue
2.216

@<SCITEGIC>MOL_PROPERTY
VdW6
SciTegic.value.DoubleValue
-8.967

@<SCITEGIC>MOL_PROPERTY
VdW12
SciTegic.value.DoubleValue
11.183

@<SCITEGIC>MOL_PROPERTY
Bond
SciTegic.value.DoubleValue
0.218

@<SCITEGIC>MOL_PROPERTY
Angle
SciTegic.value.DoubleValue
2.426

@<SCITEGIC>MOL_PROPERTY
Pdih
SciTegic.value.DoubleValue
9.745

@<SCITEGIC>MOL_PROPERTY
Idih
SciTegic.value.DoubleValue
0.000

@<SCITEGIC>MOL_PROPERTY
Tether
SciTegic.value.DoubleValue
0.000

@<TRIPOS>MOLECULE
guest-5_confgen4.mol2 : confsearch ligand conformer 772
          22          22           1
SMALL
USER_CHARGES
 
@<TRIPOS>ATOM
       1    C1      18.944673   20.949933   23.249179 C.3        1 MOL1        -0.1685
       2    H1      18.119098   21.405560   22.685608 H          1 MOL1         0.0832
       3    H2      18.924201   21.421266   24.241269 H          1 MOL1         0.0832
       4    C2      20.272654   21.319326   22.545838 C.3        1 MOL1        -0.1685
       5    H3      20.120777   21.329895   21.458042 H          1 MOL1         0.0832
       6    H4      20.524122   22.353693   22.817190 H          1 MOL1         0.0832
       7    C3      21.471352   20.404518   22.889048 C.3        1 MOL1        -0.1685
       8    H5      21.446083   20.102115   23.944865 H          1 MOL1         0.0832
       9    H6      22.393119   20.987865   22.761208 H          1 MOL1         0.0832
      10    C4      21.564913   19.165321   21.962919 C.3        1 MOL1        -0.1761
      11    H7      21.515591   19.492463   20.916469 H          1 MOL1         0.0832
      12    H8      22.557615   18.712097   22.083527 H          1 MOL1         0.0832
      13    C5      20.506780   18.061677   22.189683 C.3        1 MOL1         0.1218
      14    H9      20.597841   17.357821   21.349807 H          1 MOL1         0.0789
      15    C6      19.037482   18.552570   22.215683 C.3        1 MOL1        -0.1761
      16    H10     18.804139   19.077888   21.280552 H          1 MOL1         0.0832
      17    H11     18.391994   17.664853   22.225303 H          1 MOL1         0.0832
      18    C7      18.660460   19.439785   23.430558 C.3        1 MOL1        -0.1685
      19    H12     17.587999   19.320965   23.635819 H          1 MOL1         0.0832
      20    H13     19.170763   19.079097   24.333295 H          1 MOL1         0.0832
      21    O1      20.809899   17.359971   23.391245 O.3        1 MOL1        -0.5509
      22    H14     20.090665   16.709129   23.523121 H          1 MOL1         0.3779
@<TRIPOS>BOND
    1     1     2    1
    2     1     3    1
    3     1     4    1
    4     4     5    1
    5     4     6    1
    6     4     7    1
    7     7     8    1
    8     7     9    1
    9     7    10    1
   10    10    11    1
   11    10    12    1
   12    10    13    1
   13    13    14    1
   14    13    15    1
   15    15    16    1
   16    15    17    1
   17     1    18    1
   18    15    18    1
   19    18    19    1
   20    18    20    1
   21    13    21    1
   22    21    22    1
@<TRIPOS>SUBSTRUCTURE
       1 MOL1            1 RESIDUE      1      MOL     
@<SCITEGIC>MOL_PROPERTY
VConf Rank
SciTegic.value.IntegerValue
772

@<SCITEGIC>MOL_PROPERTY
Conf_Id
SciTegic.value.IntegerValue
95

@<SCITEGIC>MOL_PROPERTY
Delta U+W
SciTegic.value.DoubleValue
-2.289

@<SCITEGIC>MOL_PROPERTY
U+W
SciTegic.value.DoubleValue
4.134

@<SCITEGIC>MOL_PROPERTY
Grad RMS
SciTegic.value.DoubleValue
0.000000

@<SCITEGIC>MOL_PROPERTY
U
SciTegic.value.DoubleValue
6.373

@<SCITEGIC>MOL_PROPERTY
W
SciTegic.value.DoubleValue
-2.240

@<SCITEGIC>MOL_PROPERTY
W(PB)
SciTegic.value.DoubleValue
-4.254

@<SCITEGIC>MOL_PROPERTY
W(SA)
SciTegic.value.DoubleValue
2.015

@<SCITEGIC>MOL_PROPERTY
Valence
SciTegic.value.DoubleValue
12.093

@<SCITEGIC>MOL_PROPERTY
Coulomb
SciTegic.value.DoubleValue
-8.058

@<SCITEGIC>MOL_PROPERTY
VdW
SciTegic.value.DoubleValue
2.339

@<SCITEGIC>MOL_PROPERTY
VdW6
SciTegic.value.DoubleValue
-9.683

@<SCITEGIC>MOL_PROPERTY
VdW12
SciTegic.value.DoubleValue
12.022

@<SCITEGIC>MOL_PROPERTY
Bond
SciTegic.value.DoubleValue
0.268

@<SCITEGIC>MOL_PROPERTY
Angle
SciTegic.value.DoubleValue
3.005

@<SCITEGIC>MOL_PROPERTY
Pdih
SciTegic.value.DoubleValue
8.820

@<SCITEGIC>MOL_PROPERTY
Idih
SciTegic.value.DoubleValue
0.000

@<SCITEGIC>MOL_PROPERTY
Tether
SciTegic.value.DoubleValue
0.000

@<TRIPOS>MOLECULE
guest-5_confgen4.mol2 : confsearch ligand conformer 773
          22          22           1
SMALL
USER_CHARGES
 
@<TRIPOS>ATOM
       1    C1      19.104071   19.041994   21.149929 C.3        1 MOL1        -0.1685
       2    H1      19.504565   18.878131   20.140222 H          1 MOL1         0.0832
       3    H2      18.043628   18.759714   21.099262 H          1 MOL1         0.0832
       4    C2      19.205649   20.552122   21.471683 C.3        1 MOL1        -0.1685
       5    H3      20.125172   20.959311   21.029920 H          1 MOL1         0.0832
       6    H4      18.381284   21.064772   20.957473 H          1 MOL1         0.0832
       7    C3      19.156576   20.906399   22.976208 C.3        1 MOL1        -0.1685
       8    H5      18.452343   20.254502   23.510910 H          1 MOL1         0.0832
       9    H6      18.761232   21.926593   23.072817 H          1 MOL1         0.0832
      10    C4      20.555107   20.876770   23.642948 C.3        1 MOL1        -0.1761
      11    H7      21.254176   21.467641   23.037084 H          1 MOL1         0.0832
      12    H8      20.495000   21.396761   24.607820 H          1 MOL1         0.0832
      13    C5      21.167655   19.477549   23.881066 C.3        1 MOL1         0.1218
      14    H9      22.211061   19.635977   24.189782 H          1 MOL1         0.0789
      15    C6      21.197130   18.552298   22.638740 C.3        1 MOL1        -0.1761
      16    H10     21.748848   19.037362   21.823382 H          1 MOL1         0.0832
      17    H11     21.782262   17.664060   22.909817 H          1 MOL1         0.0832
      18    C7      19.808427   18.079283   22.135548 C.3        1 MOL1        -0.1685
      19    H12     19.926918   17.109740   21.633389 H          1 MOL1         0.0832
      20    H13     19.148300   17.883715   22.990887 H          1 MOL1         0.0832
      21    O1      20.480556   18.837263   24.951964 O.3        1 MOL1        -0.5509
      22    H14     20.476377   19.467860   25.700640 H          1 MOL1         0.3779
@<TRIPOS>BOND
    1     1     2    1
    2     1     3    1
    3     1     4    1
    4     4     5    1
    5     4     6    1
    6     4     7    1
    7     7     8    1
    8     7     9    1
    9     7    10    1
   10    10    11    1
   11    10    12    1
   12    10    13    1
   13    13    14    1
   14    13    15    1
   15    15    16    1
   16    15    17    1
   17     1    18    1
   18    15    18    1
   19    18    19    1
   20    18    20    1
   21    13    21    1
   22    21    22    1
@<TRIPOS>SUBSTRUCTURE
       1 MOL1            1 RESIDUE      1      MOL     
@<SCITEGIC>MOL_PROPERTY
VConf Rank
SciTegic.value.IntegerValue
773

@<SCITEGIC>MOL_PROPERTY
Conf_Id
SciTegic.value.IntegerValue
41

@<SCITEGIC>MOL_PROPERTY
Delta U+W
SciTegic.value.DoubleValue
-2.114

@<SCITEGIC>MOL_PROPERTY
U+W
SciTegic.value.DoubleValue
4.310

@<SCITEGIC>MOL_PROPERTY
Grad RMS
SciTegic.value.DoubleValue
0.000000

@<SCITEGIC>MOL_PROPERTY
U
SciTegic.value.DoubleValue
6.598

@<SCITEGIC>MOL_PROPERTY
W
SciTegic.value.DoubleValue
-2.289

@<SCITEGIC>MOL_PROPERTY
W(PB)
SciTegic.value.DoubleValue
-4.294

@<SCITEGIC>MOL_PROPERTY
W(SA)
SciTegic.value.DoubleValue
2.005

@<SCITEGIC>MOL_PROPERTY
Valence
SciTegic.value.DoubleValue
12.082

@<SCITEGIC>MOL_PROPERTY
Coulomb
SciTegic.value.DoubleValue
-7.801

@<SCITEGIC>MOL_PROPERTY
VdW
SciTegic.value.DoubleValue
2.317

@<SCITEGIC>MOL_PROPERTY
VdW6
SciTegic.value.DoubleValue
-9.658

@<SCITEGIC>MOL_PROPERTY
VdW12
SciTegic.value.DoubleValue
11.975

@<SCITEGIC>MOL_PROPERTY
Bond
SciTegic.value.DoubleValue
0.267

@<SCITEGIC>MOL_PROPERTY
Angle
SciTegic.value.DoubleValue
3.051

@<SCITEGIC>MOL_PROPERTY
Pdih
SciTegic.value.DoubleValue
8.764

@<SCITEGIC>MOL_PROPERTY
Idih
SciTegic.value.DoubleValue
0.000

@<SCITEGIC>MOL_PROPERTY
Tether
SciTegic.value.DoubleValue
0.000

@<TRIPOS>MOLECULE
guest-5_confgen4.mol2 : confsearch ligand conformer 774
          22          22           1
SMALL
USER_CHARGES
 
@<TRIPOS>ATOM
       1    C1      18.909290   19.737217   23.878323 C.3        1 MOL1        -0.1685
       2    H1      18.057892   20.065053   24.490037 H          1 MOL1         0.0832
       3    H2      19.138153   18.710100   24.194280 H          1 MOL1         0.0832
       4    C2      20.097670   20.678451   24.177018 C.3        1 MOL1        -0.1685
       5    H3      19.873735   21.684802   23.797951 H          1 MOL1         0.0832
       6    H4      20.197834   20.782251   25.265941 H          1 MOL1         0.0832
       7    C3      21.453567   20.204085   23.609796 C.3        1 MOL1        -0.1685
       8    H5      21.778675   19.302569   24.145952 H          1 MOL1         0.0832
       9    H6      22.204455   20.971095   23.842153 H          1 MOL1         0.0832
      10    C4      21.474911   19.947912   22.078422 C.3        1 MOL1        -0.1761
      11    H7      21.077059   20.820478   21.544944 H          1 MOL1         0.0832
      12    H8      22.525043   19.865649   21.770138 H          1 MOL1         0.0832
      13    C5      20.755181   18.662473   21.595029 C.3        1 MOL1         0.1218
      14    H9      21.122979   18.458311   20.578998 H          1 MOL1         0.0789
      15    C6      19.210893   18.752382   21.484437 C.3        1 MOL1        -0.1761
      16    H10     18.959619   18.999451   20.444783 H          1 MOL1         0.0832
      17    H11     18.781392   17.756552   21.655679 H          1 MOL1         0.0832
      18    C7      18.480069   19.770196   22.394848 C.3        1 MOL1        -0.1685
      19    H12     18.604398   20.785357   21.994341 H          1 MOL1         0.0832
      20    H13     17.403389   19.560481   22.336043 H          1 MOL1         0.0832
      21    O1      21.113565   17.552698   22.414103 O.3        1 MOL1        -0.5509
      22    H14     20.664115   16.768066   22.039594 H          1 MOL1         0.3779
@<TRIPOS>BOND
    1     1     2    1
    2     1     3    1
    3     1     4    1
    4     4     5    1
    5     4     6    1
    6     4     7    1
    7     7     8    1
    8     7     9    1
    9     7    10    1
   10    10    11    1
   11    10    12    1
   12    10    13    1
   13    13    14    1
   14    13    15    1
   15    15    16    1
   16    15    17    1
   17     1    18    1
   18    15    18    1
   19    18    19    1
   20    18    20    1
   21    13    21    1
   22    21    22    1
@<TRIPOS>SUBSTRUCTURE
       1 MOL1            1 RESIDUE      1      MOL     
@<SCITEGIC>MOL_PROPERTY
VConf Rank
SciTegic.value.IntegerValue
774

@<SCITEGIC>MOL_PROPERTY
Conf_Id
SciTegic.value.IntegerValue
104

@<SCITEGIC>MOL_PROPERTY
Delta U+W
SciTegic.value.DoubleValue
-1.172

@<SCITEGIC>MOL_PROPERTY
U+W
SciTegic.value.DoubleValue
5.252

@<SCITEGIC>MOL_PROPERTY
Grad RMS
SciTegic.value.DoubleValue
0.000000

@<SCITEGIC>MOL_PROPERTY
U
SciTegic.value.DoubleValue
7.482

@<SCITEGIC>MOL_PROPERTY
W
SciTegic.value.DoubleValue
-2.230

@<SCITEGIC>MOL_PROPERTY
W(PB)
SciTegic.value.DoubleValue
-4.220

@<SCITEGIC>MOL_PROPERTY
W(SA)
SciTegic.value.DoubleValue
1.990

@<SCITEGIC>MOL_PROPERTY
Valence
SciTegic.value.DoubleValue
12.309

@<SCITEGIC>MOL_PROPERTY
Coulomb
SciTegic.value.DoubleValue
-7.084

@<SCITEGIC>MOL_PROPERTY
VdW
SciTegic.value.DoubleValue
2.258

@<SCITEGIC>MOL_PROPERTY
VdW6
SciTegic.value.DoubleValue
-9.770

@<SCITEGIC>MOL_PROPERTY
VdW12
SciTegic.value.DoubleValue
12.028

@<SCITEGIC>MOL_PROPERTY
Bond
SciTegic.value.DoubleValue
0.284

@<SCITEGIC>MOL_PROPERTY
Angle
SciTegic.value.DoubleValue
3.491

@<SCITEGIC>MOL_PROPERTY
Pdih
SciTegic.value.DoubleValue
8.535

@<SCITEGIC>MOL_PROPERTY
Idih
SciTegic.value.DoubleValue
0.000

@<SCITEGIC>MOL_PROPERTY
Tether
SciTegic.value.DoubleValue
0.000

@<TRIPOS>MOLECULE
guest-5_confgen4.mol2 : confsearch ligand conformer 775
          22          22           1
SMALL
USER_CHARGES
 
@<TRIPOS>ATOM
       1    C1      18.483029   19.317010   22.303128 C.3        1 MOL1        -0.1685
       2    H1      18.720507   18.531583   21.572928 H          1 MOL1         0.0832
       3    H2      17.389386   19.420578   22.290544 H          1 MOL1         0.0832
       4    C2      19.091155   20.671876   21.874170 C.3        1 MOL1        -0.1685
       5    H3      18.446387   21.117102   21.103913 H          1 MOL1         0.0832
       6    H4      19.050078   21.372496   22.718434 H          1 MOL1         0.0832
       7    C3      20.531864   20.611581   21.306369 C.3        1 MOL1        -0.1685
       8    H5      21.008342   21.589315   21.462317 H          1 MOL1         0.0832
       9    H6      20.470812   20.488112   20.216434 H          1 MOL1         0.0832
      10    C4      21.465543   19.497090   21.851672 C.3        1 MOL1        -0.1761
      11    H7      21.218020   18.548321   21.358190 H          1 MOL1         0.0832
      12    H8      22.490450   19.727978   21.533464 H          1 MOL1         0.0832
      13    C5      21.476350   19.273039   23.381269 C.3        1 MOL1         0.1218
      14    H9      22.423258   18.773607   23.631896 H          1 MOL1         0.0789
      15    C6      20.339757   18.341514   23.859479 C.3        1 MOL1        -0.1761
      16    H10     20.409672   17.392231   23.312638 H          1 MOL1         0.0832
      17    H11     20.523478   18.090221   24.912258 H          1 MOL1         0.0832
      18    C7      18.896743   18.889324   23.731395 C.3        1 MOL1        -0.1685
      19    H12     18.207524   18.103496   24.069275 H          1 MOL1         0.0832
      20    H13     18.753148   19.726792   24.427459 H          1 MOL1         0.0832
      21    O1      21.413460   20.513776   24.067408 O.3        1 MOL1        -0.5509
      22    H14     20.594747   20.930481   23.732219 H          1 MOL1         0.3779
@<TRIPOS>BOND
    1     1     2    1
    2     1     3    1
    3     1     4    1
    4     4     5    1
    5     4     6    1
    6     4     7    1
    7     7     8    1
    8     7     9    1
    9     7    10    1
   10    10    11    1
   11    10    12    1
   12    10    13    1
   13    13    14    1
   14    13    15    1
   15    15    16    1
   16    15    17    1
   17     1    18    1
   18    15    18    1
   19    18    19    1
   20    18    20    1
   21    13    21    1
   22    21    22    1
@<TRIPOS>SUBSTRUCTURE
       1 MOL1            1 RESIDUE      1      MOL     
@<SCITEGIC>MOL_PROPERTY
VConf Rank
SciTegic.value.IntegerValue
775

@<SCITEGIC>MOL_PROPERTY
Conf_Id
SciTegic.value.IntegerValue
99

@<SCITEGIC>MOL_PROPERTY
Delta U+W
SciTegic.value.DoubleValue
-3.852

@<SCITEGIC>MOL_PROPERTY
U+W
SciTegic.value.DoubleValue
2.572

@<SCITEGIC>MOL_PROPERTY
Grad RMS
SciTegic.value.DoubleValue
0.000000

@<SCITEGIC>MOL_PROPERTY
U
SciTegic.value.DoubleValue
3.922

@<SCITEGIC>MOL_PROPERTY
W
SciTegic.value.DoubleValue
-1.350

@<SCITEGIC>MOL_PROPERTY
W(PB)
SciTegic.value.DoubleValue
-3.345

@<SCITEGIC>MOL_PROPERTY
W(SA)
SciTegic.value.DoubleValue
1.995

@<SCITEGIC>MOL_PROPERTY
Valence
SciTegic.value.DoubleValue
12.571

@<SCITEGIC>MOL_PROPERTY
Coulomb
SciTegic.value.DoubleValue
-10.581

@<SCITEGIC>MOL_PROPERTY
VdW
SciTegic.value.DoubleValue
1.932

@<SCITEGIC>MOL_PROPERTY
VdW6
SciTegic.value.DoubleValue
-10.483

@<SCITEGIC>MOL_PROPERTY
VdW12
SciTegic.value.DoubleValue
12.415

@<SCITEGIC>MOL_PROPERTY
Bond
SciTegic.value.DoubleValue
0.268

@<SCITEGIC>MOL_PROPERTY
Angle
SciTegic.value.DoubleValue
3.728

@<SCITEGIC>MOL_PROPERTY
Pdih
SciTegic.value.DoubleValue
8.575

@<SCITEGIC>MOL_PROPERTY
Idih
SciTegic.value.DoubleValue
0.000

@<SCITEGIC>MOL_PROPERTY
Tether
SciTegic.value.DoubleValue
0.000

@<TRIPOS>MOLECULE
guest-5_confgen4.mol2 : confsearch ligand conformer 776
          22          22           1
SMALL
USER_CHARGES
 
@<TRIPOS>ATOM
       1    C1      20.826176   20.952263   22.071793 C.3        1 MOL1        -0.1685
       2    H1      20.926325   21.752297   21.325330 H          1 MOL1         0.0832
       3    H2      21.615457   21.152295   22.808732 H          1 MOL1         0.0832
       4    C2      21.091948   19.595475   21.356011 C.3        1 MOL1        -0.1685
       5    H3      21.307292   19.808264   20.299773 H          1 MOL1         0.0832
       6    H4      22.010338   19.135888   21.745104 H          1 MOL1         0.0832
       7    C3      19.935310   18.564620   21.403714 C.3        1 MOL1        -0.1685
       8    H5      20.171099   17.747009   20.708990 H          1 MOL1         0.0832
       9    H6      19.020707   19.015250   20.998739 H          1 MOL1         0.0832
      10    C4      19.639454   17.936509   22.793957 C.3        1 MOL1        -0.1761
      11    H7      18.608582   17.559674   22.787653 H          1 MOL1         0.0832
      12    H8      20.272564   17.047342   22.914572 H          1 MOL1         0.0832
      13    C5      19.830795   18.819381   24.051766 C.3        1 MOL1         0.1218
      14    H9      19.363376   18.284940   24.891211 H          1 MOL1         0.0789
      15    C6      19.190773   20.228701   24.003473 C.3        1 MOL1        -0.1761
      16    H10     18.106895   20.122819   24.140360 H          1 MOL1         0.0832
      17    H11     19.541782   20.781750   24.884908 H          1 MOL1         0.0832
      18    C7      19.437798   21.104808   22.744022 C.3        1 MOL1        -0.1685
      19    H12     18.646910   20.923276   22.005707 H          1 MOL1         0.0832
      20    H13     19.307508   22.155983   23.035194 H          1 MOL1         0.0832
      21    O1      21.213900   18.934480   24.346749 O.3        1 MOL1        -0.5509
      22    H14     21.580883   19.412877   23.576428 H          1 MOL1         0.3779
@<TRIPOS>BOND
    1     1     2    1
    2     1     3    1
    3     1     4    1
    4     4     5    1
    5     4     6    1
    6     4     7    1
    7     7     8    1
    8     7     9    1
    9     7    10    1
   10    10    11    1
   11    10    12    1
   12    10    13    1
   13    13    14    1
   14    13    15    1
   15    15    16    1
   16    15    17    1
   17     1    18    1
   18    15    18    1
   19    18    19    1
   20    18    20    1
   21    13    21    1
   22    21    22    1
@<TRIPOS>SUBSTRUCTURE
       1 MOL1            1 RESIDUE      1      MOL     
@<SCITEGIC>MOL_PROPERTY
VConf Rank
SciTegic.value.IntegerValue
776

@<SCITEGIC>MOL_PROPERTY
Conf_Id
SciTegic.value.IntegerValue
98

@<SCITEGIC>MOL_PROPERTY
Delta U+W
SciTegic.value.DoubleValue
0.930

@<SCITEGIC>MOL_PROPERTY
U+W
SciTegic.value.DoubleValue
7.353

@<SCITEGIC>MOL_PROPERTY
Grad RMS
SciTegic.value.DoubleValue
0.000000

@<SCITEGIC>MOL_PROPERTY
U
SciTegic.value.DoubleValue
8.455

@<SCITEGIC>MOL_PROPERTY
W
SciTegic.value.DoubleValue
-1.102

@<SCITEGIC>MOL_PROPERTY
W(PB)
SciTegic.value.DoubleValue
-3.101

@<SCITEGIC>MOL_PROPERTY
W(SA)
SciTegic.value.DoubleValue
2.000

@<SCITEGIC>MOL_PROPERTY
Valence
SciTegic.value.DoubleValue
15.601

@<SCITEGIC>MOL_PROPERTY
Coulomb
SciTegic.value.DoubleValue
-10.573

@<SCITEGIC>MOL_PROPERTY
VdW
SciTegic.value.DoubleValue
3.427

@<SCITEGIC>MOL_PROPERTY
VdW6
SciTegic.value.DoubleValue
-11.360

@<SCITEGIC>MOL_PROPERTY
VdW12
SciTegic.value.DoubleValue
14.787

@<SCITEGIC>MOL_PROPERTY
Bond
SciTegic.value.DoubleValue
0.471

@<SCITEGIC>MOL_PROPERTY
Angle
SciTegic.value.DoubleValue
5.445

@<SCITEGIC>MOL_PROPERTY
Pdih
SciTegic.value.DoubleValue
9.685

@<SCITEGIC>MOL_PROPERTY
Idih
SciTegic.value.DoubleValue
0.000

@<SCITEGIC>MOL_PROPERTY
Tether
SciTegic.value.DoubleValue
0.000

@<TRIPOS>MOLECULE
guest-5_confgen4.mol2 : confsearch ligand conformer 777
          22          22           1
SMALL
USER_CHARGES
 
@<TRIPOS>ATOM
       1    C1      20.438992   17.876363   22.488791 C.3        1 MOL1        -0.1685
       2    H1      21.017975   18.166824   21.602680 H          1 MOL1         0.0832
       3    H2      20.620537   16.799498   22.607600 H          1 MOL1         0.0832
       4    C2      18.927984   18.095418   22.222277 C.3        1 MOL1        -0.1685
       5    H3      18.653546   17.483238   21.352339 H          1 MOL1         0.0832
       6    H4      18.344632   17.695979   23.062975 H          1 MOL1         0.0832
       7    C3      18.485080   19.558448   21.942945 C.3        1 MOL1        -0.1685
       8    H5      17.999637   19.981012   22.832214 H          1 MOL1         0.0832
       9    H6      17.699796   19.537868   21.175130 H          1 MOL1         0.0832
      10    C4      19.617080   20.508904   21.470802 C.3        1 MOL1        -0.1761
      11    H7      20.139963   20.051813   20.621515 H          1 MOL1         0.0832
      12    H8      19.155941   21.417851   21.061470 H          1 MOL1         0.0832
      13    C5      20.659022   20.916128   22.553574 C.3        1 MOL1         0.1218
      14    H9      21.661815   20.813636   22.114291 H          1 MOL1         0.0789
      15    C6      20.622305   20.099355   23.869549 C.3        1 MOL1        -0.1761
      16    H10     21.312223   20.556261   24.590872 H          1 MOL1         0.0832
      17    H11     19.630622   20.185278   24.329737 H          1 MOL1         0.0832
      18    C7      21.000391   18.603251   23.733421 C.3        1 MOL1        -0.1685
      19    H12     22.095133   18.513411   23.716619 H          1 MOL1         0.0832
      20    H13     20.668713   18.076509   24.638520 H          1 MOL1         0.0832
      21    O1      20.445778   22.281546   22.893186 O.3        1 MOL1        -0.5509
      22    H14     21.148088   22.527212   23.530829 H          1 MOL1         0.3779
@<TRIPOS>BOND
    1     1     2    1
    2     1     3    1
    3     1     4    1
    4     4     5    1
    5     4     6    1
    6     4     7    1
    7     7     8    1
    8     7     9    1
    9     7    10    1
   10    10    11    1
   11    10    12    1
   12    10    13    1
   13    13    14    1
   14    13    15    1
   15    15    16    1
   16    15    17    1
   17     1    18    1
   18    15    18    1
   19    18    19    1
   20    18    20    1
   21    13    21    1
   22    21    22    1
@<TRIPOS>SUBSTRUCTURE
       1 MOL1            1 RESIDUE      1      MOL     
@<SCITEGIC>MOL_PROPERTY
VConf Rank
SciTegic.value.IntegerValue
777

@<SCITEGIC>MOL_PROPERTY
Conf_Id
SciTegic.value.IntegerValue
141

@<SCITEGIC>MOL_PROPERTY
Delta U+W
SciTegic.value.DoubleValue
0.000

@<SCITEGIC>MOL_PROPERTY
U+W
SciTegic.value.DoubleValue
6.423

@<SCITEGIC>MOL_PROPERTY
Grad RMS
SciTegic.value.DoubleValue
0.000000

@<SCITEGIC>MOL_PROPERTY
U
SciTegic.value.DoubleValue
8.781

@<SCITEGIC>MOL_PROPERTY
W
SciTegic.value.DoubleValue
-2.358

@<SCITEGIC>MOL_PROPERTY
W(PB)
SciTegic.value.DoubleValue
-4.373

@<SCITEGIC>MOL_PROPERTY
W(SA)
SciTegic.value.DoubleValue
2.015

@<SCITEGIC>MOL_PROPERTY
Valence
SciTegic.value.DoubleValue
13.328

@<SCITEGIC>MOL_PROPERTY
Coulomb
SciTegic.value.DoubleValue
-8.387

@<SCITEGIC>MOL_PROPERTY
VdW
SciTegic.value.DoubleValue
3.840

@<SCITEGIC>MOL_PROPERTY
VdW6
SciTegic.value.DoubleValue
-9.744

@<SCITEGIC>MOL_PROPERTY
VdW12
SciTegic.value.DoubleValue
13.584

@<SCITEGIC>MOL_PROPERTY
Bond
SciTegic.value.DoubleValue
0.436

@<SCITEGIC>MOL_PROPERTY
Angle
SciTegic.value.DoubleValue
3.478

@<SCITEGIC>MOL_PROPERTY
Pdih
SciTegic.value.DoubleValue
9.415

@<SCITEGIC>MOL_PROPERTY
Idih
SciTegic.value.DoubleValue
0.000

@<SCITEGIC>MOL_PROPERTY
Tether
SciTegic.value.DoubleValue
0.000

@<TRIPOS>MOLECULE
guest-5_confgen4.mol2 : confsearch ligand conformer 778
          22          22           1
SMALL
USER_CHARGES
 
@<TRIPOS>ATOM
       1    C1      20.293371   20.680550   24.007183 C.3        1 MOL1        -0.1685
       2    H1      19.569602   20.104573   24.599650 H          1 MOL1         0.0832
       3    H2      20.704958   21.440311   24.685609 H          1 MOL1         0.0832
       4    C2      19.591454   21.421072   22.843313 C.3        1 MOL1        -0.1685
       5    H3      18.955606   22.211729   23.264518 H          1 MOL1         0.0832
       6    H4      20.345032   21.937563   22.233201 H          1 MOL1         0.0832
       7    C3      18.715266   20.533137   21.929969 C.3        1 MOL1        -0.1685
       8    H5      18.331478   21.157460   21.111584 H          1 MOL1         0.0832
       9    H6      17.831703   20.195133   22.488566 H          1 MOL1         0.0832
      10    C4      19.439009   19.308153   21.319402 C.3        1 MOL1        -0.1761
      11    H7      18.795659   18.903437   20.527071 H          1 MOL1         0.0832
      12    H8      20.371927   19.614486   20.828666 H          1 MOL1         0.0832
      13    C5      19.713347   18.198203   22.358814 C.3        1 MOL1         0.1218
      14    H9      18.896684   18.206552   23.094908 H          1 MOL1         0.0789
      15    C6      21.051800   18.346034   23.117751 C.3        1 MOL1        -0.1761
      16    H10     20.992166   17.722312   24.019008 H          1 MOL1         0.0832
      17    H11     21.862477   17.920939   22.510949 H          1 MOL1         0.0832
      18    C7      21.459295   19.781949   23.532649 C.3        1 MOL1        -0.1685
      19    H12     22.201158   19.704561   24.339169 H          1 MOL1         0.0832
      20    H13     21.981381   20.271066   22.699042 H          1 MOL1         0.0832
      21    O1      19.719609   16.940140   21.695145 O.3        1 MOL1        -0.5509
      22    H14     18.836077   16.833150   21.284606 H          1 MOL1         0.3779
@<TRIPOS>BOND
    1     1     2    1
    2     1     3    1
    3     1     4    1
    4     4     5    1
    5     4     6    1
    6     4     7    1
    7     7     8    1
    8     7     9    1
    9     7    10    1
   10    10    11    1
   11    10    12    1
   12    10    13    1
   13    13    14    1
   14    13    15    1
   15    15    16    1
   16    15    17    1
   17     1    18    1
   18    15    18    1
   19    18    19    1
   20    18    20    1
   21    13    21    1
   22    21    22    1
@<TRIPOS>SUBSTRUCTURE
       1 MOL1            1 RESIDUE      1      MOL     
@<SCITEGIC>MOL_PROPERTY
VConf Rank
SciTegic.value.IntegerValue
778

@<SCITEGIC>MOL_PROPERTY
Conf_Id
SciTegic.value.IntegerValue
144

@<SCITEGIC>MOL_PROPERTY
Delta U+W
SciTegic.value.DoubleValue
-3.291

@<SCITEGIC>MOL_PROPERTY
U+W
SciTegic.value.DoubleValue
3.132

@<SCITEGIC>MOL_PROPERTY
Grad RMS
SciTegic.value.DoubleValue
0.000000

@<SCITEGIC>MOL_PROPERTY
U
SciTegic.value.DoubleValue
5.411

@<SCITEGIC>MOL_PROPERTY
W
SciTegic.value.DoubleValue
-2.279

@<SCITEGIC>MOL_PROPERTY
W(PB)
SciTegic.value.DoubleValue
-4.300

@<SCITEGIC>MOL_PROPERTY
W(SA)
SciTegic.value.DoubleValue
2.021

@<SCITEGIC>MOL_PROPERTY
Valence
SciTegic.value.DoubleValue
11.909

@<SCITEGIC>MOL_PROPERTY
Coulomb
SciTegic.value.DoubleValue
-8.733

@<SCITEGIC>MOL_PROPERTY
VdW
SciTegic.value.DoubleValue
2.236

@<SCITEGIC>MOL_PROPERTY
VdW6
SciTegic.value.DoubleValue
-8.936

@<SCITEGIC>MOL_PROPERTY
VdW12
SciTegic.value.DoubleValue
11.172

@<SCITEGIC>MOL_PROPERTY
Bond
SciTegic.value.DoubleValue
0.223

@<SCITEGIC>MOL_PROPERTY
Angle
SciTegic.value.DoubleValue
2.457

@<SCITEGIC>MOL_PROPERTY
Pdih
SciTegic.value.DoubleValue
9.228

@<SCITEGIC>MOL_PROPERTY
Idih
SciTegic.value.DoubleValue
0.000

@<SCITEGIC>MOL_PROPERTY
Tether
SciTegic.value.DoubleValue
0.000

@<TRIPOS>MOLECULE
guest-5_confgen4.mol2 : confsearch ligand conformer 779
          22          22           1
SMALL
USER_CHARGES
 
@<TRIPOS>ATOM
       1    C1      20.466362   19.705629   21.009395 C.3        1 MOL1        -0.1685
       2    H1      21.063149   19.741153   20.087725 H          1 MOL1         0.0832
       3    H2      19.429261   19.905996   20.707807 H          1 MOL1         0.0832
       4    C2      20.987124   20.809523   21.959290 C.3        1 MOL1        -0.1685
       5    H3      21.871080   20.441413   22.497706 H          1 MOL1         0.0832
       6    H4      21.342746   21.657268   21.357743 H          1 MOL1         0.0832
       7    C3      19.948136   21.347043   22.972946 C.3        1 MOL1        -0.1685
       8    H5      19.337739   22.118540   22.483944 H          1 MOL1         0.0832
       9    H6      20.490090   21.861716   23.778188 H          1 MOL1         0.0832
      10    C4      18.992707   20.300384   23.597286 C.3        1 MOL1        -0.1761
      11    H7      18.560846   20.740077   24.506481 H          1 MOL1         0.0832
      12    H8      18.147484   20.132981   22.917235 H          1 MOL1         0.0832
      13    C5      19.647758   18.943930   23.941575 C.3        1 MOL1         0.1218
      14    H9      20.686196   19.107535   24.263057 H          1 MOL1         0.0789
      15    C6      19.622269   17.955179   22.753847 C.3        1 MOL1        -0.1761
      16    H10     19.861483   16.950518   23.127431 H          1 MOL1         0.0832
      17    H11     18.603329   17.893908   22.349998 H          1 MOL1         0.0832
      18    C7      20.604445   18.283718   21.604453 C.3        1 MOL1        -0.1685
      19    H12     21.635484   18.132343   21.952260 H          1 MOL1         0.0832
      20    H13     20.449330   17.551113   20.800701 H          1 MOL1         0.0832
      21    O1      18.922382   18.356793   25.013634 O.3        1 MOL1        -0.5509
      22    H14     18.006673   18.228866   24.690724 H          1 MOL1         0.3779
@<TRIPOS>BOND
    1     1     2    1
    2     1     3    1
    3     1     4    1
    4     4     5    1
    5     4     6    1
    6     4     7    1
    7     7     8    1
    8     7     9    1
    9     7    10    1
   10    10    11    1
   11    10    12    1
   12    10    13    1
   13    13    14    1
   14    13    15    1
   15    15    16    1
   16    15    17    1
   17     1    18    1
   18    15    18    1
   19    18    19    1
   20    18    20    1
   21    13    21    1
   22    21    22    1
@<TRIPOS>SUBSTRUCTURE
       1 MOL1            1 RESIDUE      1      MOL     
@<SCITEGIC>MOL_PROPERTY
VConf Rank
SciTegic.value.IntegerValue
779

@<SCITEGIC>MOL_PROPERTY
Conf_Id
SciTegic.value.IntegerValue
76

@<SCITEGIC>MOL_PROPERTY
Delta U+W
SciTegic.value.DoubleValue
-3.175

@<SCITEGIC>MOL_PROPERTY
U+W
SciTegic.value.DoubleValue
3.248

@<SCITEGIC>MOL_PROPERTY
Grad RMS
SciTegic.value.DoubleValue
0.000000

@<SCITEGIC>MOL_PROPERTY
U
SciTegic.value.DoubleValue
5.336

@<SCITEGIC>MOL_PROPERTY
W
SciTegic.value.DoubleValue
-2.088

@<SCITEGIC>MOL_PROPERTY
W(PB)
SciTegic.value.DoubleValue
-4.098

@<SCITEGIC>MOL_PROPERTY
W(SA)
SciTegic.value.DoubleValue
2.010

@<SCITEGIC>MOL_PROPERTY
Valence
SciTegic.value.DoubleValue
12.390

@<SCITEGIC>MOL_PROPERTY
Coulomb
SciTegic.value.DoubleValue
-9.270

@<SCITEGIC>MOL_PROPERTY
VdW
SciTegic.value.DoubleValue
2.216

@<SCITEGIC>MOL_PROPERTY
VdW6
SciTegic.value.DoubleValue
-8.967

@<SCITEGIC>MOL_PROPERTY
VdW12
SciTegic.value.DoubleValue
11.183

@<SCITEGIC>MOL_PROPERTY
Bond
SciTegic.value.DoubleValue
0.218

@<SCITEGIC>MOL_PROPERTY
Angle
SciTegic.value.DoubleValue
2.426

@<SCITEGIC>MOL_PROPERTY
Pdih
SciTegic.value.DoubleValue
9.745

@<SCITEGIC>MOL_PROPERTY
Idih
SciTegic.value.DoubleValue
0.000

@<SCITEGIC>MOL_PROPERTY
Tether
SciTegic.value.DoubleValue
0.000

@<TRIPOS>MOLECULE
guest-5_confgen4.mol2 : confsearch ligand conformer 780
          22          22           1
SMALL
USER_CHARGES
 
@<TRIPOS>ATOM
       1    C1      18.553665   19.094393   23.691342 C.3        1 MOL1        -0.1685
       2    H1      17.606819   19.647325   23.758655 H          1 MOL1         0.0832
       3    H2      18.401559   18.171551   24.267572 H          1 MOL1         0.0832
       4    C2      19.656056   19.937235   24.376196 C.3        1 MOL1        -0.1685
       5    H3      19.479305   21.002955   24.177499 H          1 MOL1         0.0832
       6    H4      19.547473   19.819296   25.462973 H          1 MOL1         0.0832
       7    C3      21.103849   19.572071   23.973589 C.3        1 MOL1        -0.1685
       8    H5      21.212685   18.487517   23.836720 H          1 MOL1         0.0832
       9    H6      21.767696   19.842246   24.805817 H          1 MOL1         0.0832
      10    C4      21.588152   20.337620   22.716026 C.3        1 MOL1        -0.1761
      11    H7      21.401051   21.410421   22.852425 H          1 MOL1         0.0832
      12    H8      22.678843   20.235711   22.642387 H          1 MOL1         0.0832
      13    C5      20.976227   19.893193   21.368016 C.3        1 MOL1         0.1218
      14    H9      21.278164   20.641277   20.620819 H          1 MOL1         0.0789
      15    C6      19.428929   19.818900   21.339091 C.3        1 MOL1        -0.1761
      16    H10     19.004479   20.792891   21.614886 H          1 MOL1         0.0832
      17    H11     19.125124   19.647833   20.298310 H          1 MOL1         0.0832
      18    C7      18.806272   18.701642   22.216160 C.3        1 MOL1        -0.1685
      19    H12     17.844681   18.402546   21.777632 H          1 MOL1         0.0832
      20    H13     19.433982   17.801525   22.181380 H          1 MOL1         0.0832
      21    O1      21.533808   18.638554   20.989854 O.3        1 MOL1        -0.5509
      22    H14     21.083400   18.371105   20.162879 H          1 MOL1         0.3779
@<TRIPOS>BOND
    1     1     2    1
    2     1     3    1
    3     1     4    1
    4     4     5    1
    5     4     6    1
    6     4     7    1
    7     7     8    1
    8     7     9    1
    9     7    10    1
   10    10    11    1
   11    10    12    1
   12    10    13    1
   13    13    14    1
   14    13    15    1
   15    15    16    1
   16    15    17    1
   17     1    18    1
   18    15    18    1
   19    18    19    1
   20    18    20    1
   21    13    21    1
   22    21    22    1
@<TRIPOS>SUBSTRUCTURE
       1 MOL1            1 RESIDUE      1      MOL     
@<SCITEGIC>MOL_PROPERTY
VConf Rank
SciTegic.value.IntegerValue
780

@<SCITEGIC>MOL_PROPERTY
Conf_Id
SciTegic.value.IntegerValue
95

@<SCITEGIC>MOL_PROPERTY
Delta U+W
SciTegic.value.DoubleValue
-2.289

@<SCITEGIC>MOL_PROPERTY
U+W
SciTegic.value.DoubleValue
4.134

@<SCITEGIC>MOL_PROPERTY
Grad RMS
SciTegic.value.DoubleValue
0.000000

@<SCITEGIC>MOL_PROPERTY
U
SciTegic.value.DoubleValue
6.373

@<SCITEGIC>MOL_PROPERTY
W
SciTegic.value.DoubleValue
-2.240

@<SCITEGIC>MOL_PROPERTY
W(PB)
SciTegic.value.DoubleValue
-4.254

@<SCITEGIC>MOL_PROPERTY
W(SA)
SciTegic.value.DoubleValue
2.015

@<SCITEGIC>MOL_PROPERTY
Valence
SciTegic.value.DoubleValue
12.093

@<SCITEGIC>MOL_PROPERTY
Coulomb
SciTegic.value.DoubleValue
-8.058

@<SCITEGIC>MOL_PROPERTY
VdW
SciTegic.value.DoubleValue
2.339

@<SCITEGIC>MOL_PROPERTY
VdW6
SciTegic.value.DoubleValue
-9.683

@<SCITEGIC>MOL_PROPERTY
VdW12
SciTegic.value.DoubleValue
12.022

@<SCITEGIC>MOL_PROPERTY
Bond
SciTegic.value.DoubleValue
0.268

@<SCITEGIC>MOL_PROPERTY
Angle
SciTegic.value.DoubleValue
3.005

@<SCITEGIC>MOL_PROPERTY
Pdih
SciTegic.value.DoubleValue
8.820

@<SCITEGIC>MOL_PROPERTY
Idih
SciTegic.value.DoubleValue
0.000

@<SCITEGIC>MOL_PROPERTY
Tether
SciTegic.value.DoubleValue
0.000

@<TRIPOS>MOLECULE
guest-5_confgen4.mol2 : confsearch ligand conformer 781
          22          22           1
SMALL
USER_CHARGES
 
@<TRIPOS>ATOM
       1    C1      18.934578   18.086338   22.911731 C.3        1 MOL1        -0.1685
       2    H1      18.087419   17.949944   23.597641 H          1 MOL1         0.0832
       3    H2      18.996433   17.158716   22.326513 H          1 MOL1         0.0832
       4    C2      20.222670   18.232460   23.756594 C.3        1 MOL1        -0.1685
       5    H3      19.995732   18.787836   24.676669 H          1 MOL1         0.0832
       6    H4      20.527397   17.229998   24.086762 H          1 MOL1         0.0832
       7    C3      21.410687   18.904311   23.029443 C.3        1 MOL1        -0.1685
       8    H5      21.450651   18.597792   21.975276 H          1 MOL1         0.0832
       9    H6      22.340050   18.540642   23.488197 H          1 MOL1         0.0832
      10    C4      21.393578   20.448528   23.157556 C.3        1 MOL1        -0.1761
      11    H7      21.266657   20.719696   24.213612 H          1 MOL1         0.0832
      12    H8      22.381224   20.835133   22.874583 H          1 MOL1         0.0832
      13    C5      20.323234   21.190200   22.324476 C.3        1 MOL1         0.1218
      14    H9      20.330397   22.237784   22.658568 H          1 MOL1         0.0789
      15    C6      18.875191   20.667716   22.499160 C.3        1 MOL1        -0.1761
      16    H10     18.584831   20.715098   23.556485 H          1 MOL1         0.0832
      17    H11     18.212363   21.367909   21.974549 H          1 MOL1         0.0832
      18    C7      18.614950   19.245528   21.937826 C.3        1 MOL1        -0.1685
      19    H12     17.556662   19.166364   21.655025 H          1 MOL1         0.0832
      20    H13     19.175563   19.104395   21.004330 H          1 MOL1         0.0832
      21    O1      20.691519   21.160794   20.948832 O.3        1 MOL1        -0.5509
      22    H14     21.614550   21.482635   20.897663 H          1 MOL1         0.3779
@<TRIPOS>BOND
    1     1     2    1
    2     1     3    1
    3     1     4    1
    4     4     5    1
    5     4     6    1
    6     4     7    1
    7     7     8    1
    8     7     9    1
    9     7    10    1
   10    10    11    1
   11    10    12    1
   12    10    13    1
   13    13    14    1
   14    13    15    1
   15    15    16    1
   16    15    17    1
   17     1    18    1
   18    15    18    1
   19    18    19    1
   20    18    20    1
   21    13    21    1
   22    21    22    1
@<TRIPOS>SUBSTRUCTURE
       1 MOL1            1 RESIDUE      1      MOL     
@<SCITEGIC>MOL_PROPERTY
VConf Rank
SciTegic.value.IntegerValue
781

@<SCITEGIC>MOL_PROPERTY
Conf_Id
SciTegic.value.IntegerValue
41

@<SCITEGIC>MOL_PROPERTY
Delta U+W
SciTegic.value.DoubleValue
-2.114

@<SCITEGIC>MOL_PROPERTY
U+W
SciTegic.value.DoubleValue
4.310

@<SCITEGIC>MOL_PROPERTY
Grad RMS
SciTegic.value.DoubleValue
0.000000

@<SCITEGIC>MOL_PROPERTY
U
SciTegic.value.DoubleValue
6.598

@<SCITEGIC>MOL_PROPERTY
W
SciTegic.value.DoubleValue
-2.289

@<SCITEGIC>MOL_PROPERTY
W(PB)
SciTegic.value.DoubleValue
-4.294

@<SCITEGIC>MOL_PROPERTY
W(SA)
SciTegic.value.DoubleValue
2.005

@<SCITEGIC>MOL_PROPERTY
Valence
SciTegic.value.DoubleValue
12.082

@<SCITEGIC>MOL_PROPERTY
Coulomb
SciTegic.value.DoubleValue
-7.801

@<SCITEGIC>MOL_PROPERTY
VdW
SciTegic.value.DoubleValue
2.317

@<SCITEGIC>MOL_PROPERTY
VdW6
SciTegic.value.DoubleValue
-9.658

@<SCITEGIC>MOL_PROPERTY
VdW12
SciTegic.value.DoubleValue
11.975

@<SCITEGIC>MOL_PROPERTY
Bond
SciTegic.value.DoubleValue
0.267

@<SCITEGIC>MOL_PROPERTY
Angle
SciTegic.value.DoubleValue
3.051

@<SCITEGIC>MOL_PROPERTY
Pdih
SciTegic.value.DoubleValue
8.764

@<SCITEGIC>MOL_PROPERTY
Idih
SciTegic.value.DoubleValue
0.000

@<SCITEGIC>MOL_PROPERTY
Tether
SciTegic.value.DoubleValue
0.000

@<TRIPOS>MOLECULE
guest-5_confgen4.mol2 : confsearch ligand conformer 782
          22          22           1
SMALL
USER_CHARGES
 
@<TRIPOS>ATOM
       1    C1      21.469113   20.253694   23.306931 C.3        1 MOL1        -0.1685
       2    H1      22.224645   20.933426   23.723689 H          1 MOL1         0.0832
       3    H2      21.855739   19.235870   23.454346 H          1 MOL1         0.0832
       4    C2      21.325182   20.570889   21.801588 C.3        1 MOL1        -0.1685
       5    H3      20.879739   21.567187   21.676878 H          1 MOL1         0.0832
       6    H4      22.328426   20.631999   21.358499 H          1 MOL1         0.0832
       7    C3      20.505119   19.535886   21.000660 C.3        1 MOL1        -0.1685
       8    H5      21.060989   18.590254   20.948899 H          1 MOL1         0.0832
       9    H6      20.432167   19.891075   19.964010 H          1 MOL1         0.0832
      10    C4      19.068501   19.279066   21.531091 C.3        1 MOL1        -0.1761
      11    H7      18.537559   20.231194   21.656835 H          1 MOL1         0.0832
      12    H8      18.519483   18.734294   20.752383 H          1 MOL1         0.0832
      13    C5      18.964749   18.442882   22.832653 C.3        1 MOL1         0.1218
      14    H9      17.927023   18.084436   22.895249 H          1 MOL1         0.0789
      15    C6      19.236313   19.209582   24.153094 C.3        1 MOL1        -0.1761
      16    H10     18.269961   19.530476   24.563281 H          1 MOL1         0.0832
      17    H11     19.646245   18.511170   24.894477 H          1 MOL1         0.0832
      18    C7      20.152199   20.456918   24.088248 C.3        1 MOL1        -0.1685
      19    H12     19.597079   21.305809   23.666775 H          1 MOL1         0.0832
      20    H13     20.396671   20.747780   25.118933 H          1 MOL1         0.0832
      21    O1      19.811922   17.299286   22.759136 O.3        1 MOL1        -0.5509
      22    H14     19.675063   16.792456   23.585152 H          1 MOL1         0.3779
@<TRIPOS>BOND
    1     1     2    1
    2     1     3    1
    3     1     4    1
    4     4     5    1
    5     4     6    1
    6     4     7    1
    7     7     8    1
    8     7     9    1
    9     7    10    1
   10    10    11    1
   11    10    12    1
   12    10    13    1
   13    13    14    1
   14    13    15    1
   15    15    16    1
   16    15    17    1
   17     1    18    1
   18    15    18    1
   19    18    19    1
   20    18    20    1
   21    13    21    1
   22    21    22    1
@<TRIPOS>SUBSTRUCTURE
       1 MOL1            1 RESIDUE      1      MOL     
@<SCITEGIC>MOL_PROPERTY
VConf Rank
SciTegic.value.IntegerValue
782

@<SCITEGIC>MOL_PROPERTY
Conf_Id
SciTegic.value.IntegerValue
104

@<SCITEGIC>MOL_PROPERTY
Delta U+W
SciTegic.value.DoubleValue
-1.172

@<SCITEGIC>MOL_PROPERTY
U+W
SciTegic.value.DoubleValue
5.252

@<SCITEGIC>MOL_PROPERTY
Grad RMS
SciTegic.value.DoubleValue
0.000000

@<SCITEGIC>MOL_PROPERTY
U
SciTegic.value.DoubleValue
7.482

@<SCITEGIC>MOL_PROPERTY
W
SciTegic.value.DoubleValue
-2.230

@<SCITEGIC>MOL_PROPERTY
W(PB)
SciTegic.value.DoubleValue
-4.220

@<SCITEGIC>MOL_PROPERTY
W(SA)
SciTegic.value.DoubleValue
1.990

@<SCITEGIC>MOL_PROPERTY
Valence
SciTegic.value.DoubleValue
12.309

@<SCITEGIC>MOL_PROPERTY
Coulomb
SciTegic.value.DoubleValue
-7.084

@<SCITEGIC>MOL_PROPERTY
VdW
SciTegic.value.DoubleValue
2.258

@<SCITEGIC>MOL_PROPERTY
VdW6
SciTegic.value.DoubleValue
-9.770

@<SCITEGIC>MOL_PROPERTY
VdW12
SciTegic.value.DoubleValue
12.028

@<SCITEGIC>MOL_PROPERTY
Bond
SciTegic.value.DoubleValue
0.284

@<SCITEGIC>MOL_PROPERTY
Angle
SciTegic.value.DoubleValue
3.491

@<SCITEGIC>MOL_PROPERTY
Pdih
SciTegic.value.DoubleValue
8.535

@<SCITEGIC>MOL_PROPERTY
Idih
SciTegic.value.DoubleValue
0.000

@<SCITEGIC>MOL_PROPERTY
Tether
SciTegic.value.DoubleValue
0.000

@<TRIPOS>MOLECULE
guest-5_confgen4.mol2 : confsearch ligand conformer 783
          22          22           1
SMALL
USER_CHARGES
 
@<TRIPOS>ATOM
       1    C1      19.059484   20.768105   23.220027 C.3        1 MOL1        -0.1685
       2    H1      18.938600   20.294411   24.203635 H          1 MOL1         0.0832
       3    H2      18.433215   21.670500   23.240238 H          1 MOL1         0.0832
       4    C2      18.528793   19.849453   22.095780 C.3        1 MOL1        -0.1685
       5    H3      17.433776   19.933509   22.062308 H          1 MOL1         0.0832
       6    H4      18.872374   20.228080   21.124219 H          1 MOL1         0.0832
       7    C3      18.882687   18.346937   22.233183 C.3        1 MOL1        -0.1685
       8    H5      18.871235   17.893989   21.232173 H          1 MOL1         0.0832
       9    H6      18.075110   17.849083   22.787158 H          1 MOL1         0.0832
      10    C4      20.220443   17.992505   22.937449 C.3        1 MOL1        -0.1761
      11    H7      20.086306   18.073050   24.023946 H          1 MOL1         0.0832
      12    H8      20.430437   16.931225   22.751468 H          1 MOL1         0.0832
      13    C5      21.468916   18.807946   22.529584 C.3        1 MOL1         0.1218
      14    H9      22.351706   18.206379   22.789736 H          1 MOL1         0.0789
      15    C6      21.593542   20.141047   23.301322 C.3        1 MOL1        -0.1761
      16    H10     21.586616   19.926074   24.377797 H          1 MOL1         0.0832
      17    H11     22.583526   20.566624   23.091411 H          1 MOL1         0.0832
      18    C7      20.523009   21.218381   22.997840 C.3        1 MOL1        -0.1685
      19    H12     20.720741   22.081432   23.648037 H          1 MOL1         0.0832
      20    H13     20.647342   21.588104   21.971036 H          1 MOL1         0.0832
      21    O1      21.471384   19.050029   21.131171 O.3        1 MOL1        -0.5509
      22    H14     20.624468   19.510657   20.967340 H          1 MOL1         0.3779
@<TRIPOS>BOND
    1     1     2    1
    2     1     3    1
    3     1     4    1
    4     4     5    1
    5     4     6    1
    6     4     7    1
    7     7     8    1
    8     7     9    1
    9     7    10    1
   10    10    11    1
   11    10    12    1
   12    10    13    1
   13    13    14    1
   14    13    15    1
   15    15    16    1
   16    15    17    1
   17     1    18    1
   18    15    18    1
   19    18    19    1
   20    18    20    1
   21    13    21    1
   22    21    22    1
@<TRIPOS>SUBSTRUCTURE
       1 MOL1            1 RESIDUE      1      MOL     
@<SCITEGIC>MOL_PROPERTY
VConf Rank
SciTegic.value.IntegerValue
783

@<SCITEGIC>MOL_PROPERTY
Conf_Id
SciTegic.value.IntegerValue
99

@<SCITEGIC>MOL_PROPERTY
Delta U+W
SciTegic.value.DoubleValue
-3.852

@<SCITEGIC>MOL_PROPERTY
U+W
SciTegic.value.DoubleValue
2.572

@<SCITEGIC>MOL_PROPERTY
Grad RMS
SciTegic.value.DoubleValue
0.000000

@<SCITEGIC>MOL_PROPERTY
U
SciTegic.value.DoubleValue
3.922

@<SCITEGIC>MOL_PROPERTY
W
SciTegic.value.DoubleValue
-1.350

@<SCITEGIC>MOL_PROPERTY
W(PB)
SciTegic.value.DoubleValue
-3.345

@<SCITEGIC>MOL_PROPERTY
W(SA)
SciTegic.value.DoubleValue
1.995

@<SCITEGIC>MOL_PROPERTY
Valence
SciTegic.value.DoubleValue
12.571

@<SCITEGIC>MOL_PROPERTY
Coulomb
SciTegic.value.DoubleValue
-10.581

@<SCITEGIC>MOL_PROPERTY
VdW
SciTegic.value.DoubleValue
1.932

@<SCITEGIC>MOL_PROPERTY
VdW6
SciTegic.value.DoubleValue
-10.483

@<SCITEGIC>MOL_PROPERTY
VdW12
SciTegic.value.DoubleValue
12.415

@<SCITEGIC>MOL_PROPERTY
Bond
SciTegic.value.DoubleValue
0.268

@<SCITEGIC>MOL_PROPERTY
Angle
SciTegic.value.DoubleValue
3.728

@<SCITEGIC>MOL_PROPERTY
Pdih
SciTegic.value.DoubleValue
8.575

@<SCITEGIC>MOL_PROPERTY
Idih
SciTegic.value.DoubleValue
0.000

@<SCITEGIC>MOL_PROPERTY
Tether
SciTegic.value.DoubleValue
0.000

@<TRIPOS>MOLECULE
guest-5_confgen4.mol2 : confsearch ligand conformer 784
          22          22           1
SMALL
USER_CHARGES
 
@<TRIPOS>ATOM
       1    C1      19.867038   19.233589   24.291834 C.3        1 MOL1        -0.1685
       2    H1      19.231970   19.019224   25.162482 H          1 MOL1         0.0832
       3    H2      20.896347   19.164674   24.668436 H          1 MOL1         0.0832
       4    C2      19.562717   20.687414   23.825321 C.3        1 MOL1        -0.1685
       5    H3      18.796051   21.102364   24.494148 H          1 MOL1         0.0832
       6    H4      20.444137   21.325181   23.975005 H          1 MOL1         0.0832
       7    C3      19.052470   20.840627   22.369668 C.3        1 MOL1        -0.1685
       8    H5      18.695473   21.870657   22.234331 H          1 MOL1         0.0832
       9    H6      18.161028   20.218381   22.222317 H          1 MOL1         0.0832
      10    C4      20.088852   20.545874   21.249909 C.3        1 MOL1        -0.1761
      11    H7      19.540658   20.302489   20.330676 H          1 MOL1         0.0832
      12    H8      20.631676   21.474065   21.026750 H          1 MOL1         0.0832
      13    C5      21.141940   19.438402   21.500250 C.3        1 MOL1         0.1218
      14    H9      21.620489   19.228219   20.532992 H          1 MOL1         0.0789
      15    C6      20.603369   18.089797   22.038164 C.3        1 MOL1        -0.1761
      16    H10     20.116191   17.556007   21.212048 H          1 MOL1         0.0832
      17    H11     21.469877   17.472845   22.311166 H          1 MOL1         0.0832
      18    C7      19.622436   18.118706   23.243044 C.3        1 MOL1        -0.1685
      19    H12     18.589271   18.173704   22.878198 H          1 MOL1         0.0832
      20    H13     19.684593   17.146285   23.750251 H          1 MOL1         0.0832
      21    O1      22.151053   19.928585   22.368957 O.3        1 MOL1        -0.5509
      22    H14     21.678235   20.098813   23.208242 H          1 MOL1         0.3779
@<TRIPOS>BOND
    1     1     2    1
    2     1     3    1
    3     1     4    1
    4     4     5    1
    5     4     6    1
    6     4     7    1
    7     7     8    1
    8     7     9    1
    9     7    10    1
   10    10    11    1
   11    10    12    1
   12    10    13    1
   13    13    14    1
   14    13    15    1
   15    15    16    1
   16    15    17    1
   17     1    18    1
   18    15    18    1
   19    18    19    1
   20    18    20    1
   21    13    21    1
   22    21    22    1
@<TRIPOS>SUBSTRUCTURE
       1 MOL1            1 RESIDUE      1      MOL     
@<SCITEGIC>MOL_PROPERTY
VConf Rank
SciTegic.value.IntegerValue
784

@<SCITEGIC>MOL_PROPERTY
Conf_Id
SciTegic.value.IntegerValue
98

@<SCITEGIC>MOL_PROPERTY
Delta U+W
SciTegic.value.DoubleValue
0.930

@<SCITEGIC>MOL_PROPERTY
U+W
SciTegic.value.DoubleValue
7.353

@<SCITEGIC>MOL_PROPERTY
Grad RMS
SciTegic.value.DoubleValue
0.000000

@<SCITEGIC>MOL_PROPERTY
U
SciTegic.value.DoubleValue
8.455

@<SCITEGIC>MOL_PROPERTY
W
SciTegic.value.DoubleValue
-1.102

@<SCITEGIC>MOL_PROPERTY
W(PB)
SciTegic.value.DoubleValue
-3.101

@<SCITEGIC>MOL_PROPERTY
W(SA)
SciTegic.value.DoubleValue
2.000

@<SCITEGIC>MOL_PROPERTY
Valence
SciTegic.value.DoubleValue
15.601

@<SCITEGIC>MOL_PROPERTY
Coulomb
SciTegic.value.DoubleValue
-10.573

@<SCITEGIC>MOL_PROPERTY
VdW
SciTegic.value.DoubleValue
3.427

@<SCITEGIC>MOL_PROPERTY
VdW6
SciTegic.value.DoubleValue
-11.360

@<SCITEGIC>MOL_PROPERTY
VdW12
SciTegic.value.DoubleValue
14.787

@<SCITEGIC>MOL_PROPERTY
Bond
SciTegic.value.DoubleValue
0.471

@<SCITEGIC>MOL_PROPERTY
Angle
SciTegic.value.DoubleValue
5.445

@<SCITEGIC>MOL_PROPERTY
Pdih
SciTegic.value.DoubleValue
9.685

@<SCITEGIC>MOL_PROPERTY
Idih
SciTegic.value.DoubleValue
0.000

@<SCITEGIC>MOL_PROPERTY
Tether
SciTegic.value.DoubleValue
0.000

@<TRIPOS>MOLECULE
guest-5_confgen4.mol2 : confsearch ligand conformer 785
          22          22           1
SMALL
USER_CHARGES
 
@<TRIPOS>ATOM
       1    C1      21.060741   18.242842   22.213131 C.3        1 MOL1        -0.1685
       2    H1      21.193583   18.749510   21.248548 H          1 MOL1         0.0832
       3    H2      21.720092   17.365411   22.167493 H          1 MOL1         0.0832
       4    C2      19.596686   17.753094   22.350425 C.3        1 MOL1        -0.1685
       5    H3      19.396838   17.069683   21.513833 H          1 MOL1         0.0832
       6    H4      19.495700   17.146498   23.260627 H          1 MOL1         0.0832
       7    C3      18.500932   18.854891   22.346946 C.3        1 MOL1        -0.1685
       8    H5      18.136834   19.026808   23.368167 H          1 MOL1         0.0832
       9    H6      17.630749   18.470752   21.797534 H          1 MOL1         0.0832
      10    C4      18.929904   20.206243   21.716439 C.3        1 MOL1        -0.1761
      11    H7      19.351948   20.021003   20.720853 H          1 MOL1         0.0832
      12    H8      18.026504   20.803317   21.532703 H          1 MOL1         0.0832
      13    C5      19.935154   21.055987   22.547870 C.3        1 MOL1         0.1218
      14    H9      20.723320   21.409849   21.867691 H          1 MOL1         0.0789
      15    C6      20.613193   20.330631   23.737148 C.3        1 MOL1        -0.1761
      16    H10     21.197942   21.060484   24.311987 H          1 MOL1         0.0832
      17    H11     19.847410   19.967310   24.432966 H          1 MOL1         0.0832
      18    C7      21.556767   19.163730   23.352676 C.3        1 MOL1        -0.1685
      19    H12     22.531221   19.576808   23.058364 H          1 MOL1         0.0832
      20    H13     21.744770   18.557961   24.249543 H          1 MOL1         0.0832
      21    O1      19.244700   22.183681   23.073945 O.3        1 MOL1        -0.5509
      22    H14     19.910264   22.729309   23.542446 H          1 MOL1         0.3779
@<TRIPOS>BOND
    1     1     2    1
    2     1     3    1
    3     1     4    1
    4     4     5    1
    5     4     6    1
    6     4     7    1
    7     7     8    1
    8     7     9    1
    9     7    10    1
   10    10    11    1
   11    10    12    1
   12    10    13    1
   13    13    14    1
   14    13    15    1
   15    15    16    1
   16    15    17    1
   17     1    18    1
   18    15    18    1
   19    18    19    1
   20    18    20    1
   21    13    21    1
   22    21    22    1
@<TRIPOS>SUBSTRUCTURE
       1 MOL1            1 RESIDUE      1      MOL     
@<SCITEGIC>MOL_PROPERTY
VConf Rank
SciTegic.value.IntegerValue
785

@<SCITEGIC>MOL_PROPERTY
Conf_Id
SciTegic.value.IntegerValue
141

@<SCITEGIC>MOL_PROPERTY
Delta U+W
SciTegic.value.DoubleValue
0.000

@<SCITEGIC>MOL_PROPERTY
U+W
SciTegic.value.DoubleValue
6.423

@<SCITEGIC>MOL_PROPERTY
Grad RMS
SciTegic.value.DoubleValue
0.000000

@<SCITEGIC>MOL_PROPERTY
U
SciTegic.value.DoubleValue
8.781

@<SCITEGIC>MOL_PROPERTY
W
SciTegic.value.DoubleValue
-2.358

@<SCITEGIC>MOL_PROPERTY
W(PB)
SciTegic.value.DoubleValue
-4.373

@<SCITEGIC>MOL_PROPERTY
W(SA)
SciTegic.value.DoubleValue
2.015

@<SCITEGIC>MOL_PROPERTY
Valence
SciTegic.value.DoubleValue
13.328

@<SCITEGIC>MOL_PROPERTY
Coulomb
SciTegic.value.DoubleValue
-8.387

@<SCITEGIC>MOL_PROPERTY
VdW
SciTegic.value.DoubleValue
3.840

@<SCITEGIC>MOL_PROPERTY
VdW6
SciTegic.value.DoubleValue
-9.744

@<SCITEGIC>MOL_PROPERTY
VdW12
SciTegic.value.DoubleValue
13.584

@<SCITEGIC>MOL_PROPERTY
Bond
SciTegic.value.DoubleValue
0.436

@<SCITEGIC>MOL_PROPERTY
Angle
SciTegic.value.DoubleValue
3.478

@<SCITEGIC>MOL_PROPERTY
Pdih
SciTegic.value.DoubleValue
9.415

@<SCITEGIC>MOL_PROPERTY
Idih
SciTegic.value.DoubleValue
0.000

@<SCITEGIC>MOL_PROPERTY
Tether
SciTegic.value.DoubleValue
0.000

@<TRIPOS>MOLECULE
guest-5_confgen4.mol2 : confsearch ligand conformer 786
          22          22           1
SMALL
USER_CHARGES
 
@<TRIPOS>ATOM
       1    C1      21.442851   19.698761   21.697327 C.3        1 MOL1        -0.1685
       2    H1      21.096848   18.821218   21.134468 H          1 MOL1         0.0832
       3    H2      22.385473   20.009343   21.226256 H          1 MOL1         0.0832
       4    C2      21.752854   19.326548   23.167365 C.3        1 MOL1        -0.1685
       5    H3      22.638352   18.676582   23.184474 H          1 MOL1         0.0832
       6    H4      22.036907   20.232385   23.720222 H          1 MOL1         0.0832
       7    C3      20.610864   18.605401   23.919786 C.3        1 MOL1        -0.1685
       8    H5      20.926598   18.458408   24.961675 H          1 MOL1         0.0832
       9    H6      20.477863   17.598013   23.502125 H          1 MOL1         0.0832
      10    C4      19.252808   19.348935   23.915187 C.3        1 MOL1        -0.1761
      11    H7      18.606864   18.864919   24.659478 H          1 MOL1         0.0832
      12    H8      19.378586   20.387107   24.248918 H          1 MOL1         0.0832
      13    C5      18.552799   19.304024   22.538381 C.3        1 MOL1         0.1218
      14    H9      18.805537   18.349517   22.054764 H          1 MOL1         0.0789
      15    C6      18.945769   20.451913   21.580665 C.3        1 MOL1        -0.1761
      16    H10     18.657989   20.149467   20.565501 H          1 MOL1         0.0832
      17    H11     18.343184   21.340464   21.811919 H          1 MOL1         0.0832
      18    C7      20.438082   20.867803   21.571544 C.3        1 MOL1        -0.1685
      19    H12     20.634254   21.407643   20.635107 H          1 MOL1         0.0832
      20    H13     20.621732   21.595095   22.374058 H          1 MOL1         0.0832
      21    O1      17.145489   19.358579   22.737681 O.3        1 MOL1        -0.5509
      22    H14     16.907355   18.580384   23.283872 H          1 MOL1         0.3779
@<TRIPOS>BOND
    1     1     2    1
    2     1     3    1
    3     1     4    1
    4     4     5    1
    5     4     6    1
    6     4     7    1
    7     7     8    1
    8     7     9    1
    9     7    10    1
   10    10    11    1
   11    10    12    1
   12    10    13    1
   13    13    14    1
   14    13    15    1
   15    15    16    1
   16    15    17    1
   17     1    18    1
   18    15    18    1
   19    18    19    1
   20    18    20    1
   21    13    21    1
   22    21    22    1
@<TRIPOS>SUBSTRUCTURE
       1 MOL1            1 RESIDUE      1      MOL     
@<SCITEGIC>MOL_PROPERTY
VConf Rank
SciTegic.value.IntegerValue
786

@<SCITEGIC>MOL_PROPERTY
Conf_Id
SciTegic.value.IntegerValue
144

@<SCITEGIC>MOL_PROPERTY
Delta U+W
SciTegic.value.DoubleValue
-3.291

@<SCITEGIC>MOL_PROPERTY
U+W
SciTegic.value.DoubleValue
3.132

@<SCITEGIC>MOL_PROPERTY
Grad RMS
SciTegic.value.DoubleValue
0.000000

@<SCITEGIC>MOL_PROPERTY
U
SciTegic.value.DoubleValue
5.411

@<SCITEGIC>MOL_PROPERTY
W
SciTegic.value.DoubleValue
-2.279

@<SCITEGIC>MOL_PROPERTY
W(PB)
SciTegic.value.DoubleValue
-4.300

@<SCITEGIC>MOL_PROPERTY
W(SA)
SciTegic.value.DoubleValue
2.021

@<SCITEGIC>MOL_PROPERTY
Valence
SciTegic.value.DoubleValue
11.909

@<SCITEGIC>MOL_PROPERTY
Coulomb
SciTegic.value.DoubleValue
-8.733

@<SCITEGIC>MOL_PROPERTY
VdW
SciTegic.value.DoubleValue
2.236

@<SCITEGIC>MOL_PROPERTY
VdW6
SciTegic.value.DoubleValue
-8.936

@<SCITEGIC>MOL_PROPERTY
VdW12
SciTegic.value.DoubleValue
11.172

@<SCITEGIC>MOL_PROPERTY
Bond
SciTegic.value.DoubleValue
0.223

@<SCITEGIC>MOL_PROPERTY
Angle
SciTegic.value.DoubleValue
2.457

@<SCITEGIC>MOL_PROPERTY
Pdih
SciTegic.value.DoubleValue
9.228

@<SCITEGIC>MOL_PROPERTY
Idih
SciTegic.value.DoubleValue
0.000

@<SCITEGIC>MOL_PROPERTY
Tether
SciTegic.value.DoubleValue
0.000

@<TRIPOS>MOLECULE
guest-5_confgen4.mol2 : confsearch ligand conformer 787
          22          22           1
SMALL
USER_CHARGES
 
@<TRIPOS>ATOM
       1    C1      18.437556   20.398636   22.829870 C.3        1 MOL1        -0.1685
       2    H1      17.537945   20.886959   23.228783 H          1 MOL1         0.0832
       3    H2      18.386665   20.512761   21.738510 H          1 MOL1         0.0832
       4    C2      18.389008   18.905637   23.230708 C.3        1 MOL1        -0.1685
       5    H3      18.761661   18.790525   24.257671 H          1 MOL1         0.0832
       6    H4      17.340223   18.579917   23.261621 H          1 MOL1         0.0832
       7    C3      19.157934   17.947797   22.288786 C.3        1 MOL1        -0.1685
       8    H5      18.514743   17.693174   21.435329 H          1 MOL1         0.0832
       9    H6      19.328824   17.004360   22.825202 H          1 MOL1         0.0832
      10    C4      20.508957   18.465549   21.736690 C.3        1 MOL1        -0.1761
      11    H7      21.080329   17.598138   21.379473 H          1 MOL1         0.0832
      12    H8      20.322366   19.084752   20.849749 H          1 MOL1         0.0832
      13    C5      21.362415   19.264471   22.747099 C.3        1 MOL1         0.1218
      14    H9      21.220197   18.852316   23.756243 H          1 MOL1         0.0789
      15    C6      21.020951   20.771911   22.749745 C.3        1 MOL1        -0.1761
      16    H10     21.814432   21.311287   23.284154 H          1 MOL1         0.0832
      17    H11     21.035744   21.152683   21.720240 H          1 MOL1         0.0832
      18    C7      19.668767   21.137981   23.406482 C.3        1 MOL1        -0.1685
      19    H12     19.728947   20.957528   24.488490 H          1 MOL1         0.0832
      20    H13     19.513297   22.219400   23.291806 H          1 MOL1         0.0832
      21    O1      22.729688   19.127512   22.383755 O.3        1 MOL1        -0.5509
      22    H14     22.815424   19.502332   21.483022 H          1 MOL1         0.3779
@<TRIPOS>BOND
    1     1     2    1
    2     1     3    1
    3     1     4    1
    4     4     5    1
    5     4     6    1
    6     4     7    1
    7     7     8    1
    8     7     9    1
    9     7    10    1
   10    10    11    1
   11    10    12    1
   12    10    13    1
   13    13    14    1
   14    13    15    1
   15    15    16    1
   16    15    17    1
   17     1    18    1
   18    15    18    1
   19    18    19    1
   20    18    20    1
   21    13    21    1
   22    21    22    1
@<TRIPOS>SUBSTRUCTURE
       1 MOL1            1 RESIDUE      1      MOL     
@<SCITEGIC>MOL_PROPERTY
VConf Rank
SciTegic.value.IntegerValue
787

@<SCITEGIC>MOL_PROPERTY
Conf_Id
SciTegic.value.IntegerValue
76

@<SCITEGIC>MOL_PROPERTY
Delta U+W
SciTegic.value.DoubleValue
-3.175

@<SCITEGIC>MOL_PROPERTY
U+W
SciTegic.value.DoubleValue
3.248

@<SCITEGIC>MOL_PROPERTY
Grad RMS
SciTegic.value.DoubleValue
0.000000

@<SCITEGIC>MOL_PROPERTY
U
SciTegic.value.DoubleValue
5.336

@<SCITEGIC>MOL_PROPERTY
W
SciTegic.value.DoubleValue
-2.088

@<SCITEGIC>MOL_PROPERTY
W(PB)
SciTegic.value.DoubleValue
-4.098

@<SCITEGIC>MOL_PROPERTY
W(SA)
SciTegic.value.DoubleValue
2.010

@<SCITEGIC>MOL_PROPERTY
Valence
SciTegic.value.DoubleValue
12.390

@<SCITEGIC>MOL_PROPERTY
Coulomb
SciTegic.value.DoubleValue
-9.270

@<SCITEGIC>MOL_PROPERTY
VdW
SciTegic.value.DoubleValue
2.216

@<SCITEGIC>MOL_PROPERTY
VdW6
SciTegic.value.DoubleValue
-8.967

@<SCITEGIC>MOL_PROPERTY
VdW12
SciTegic.value.DoubleValue
11.183

@<SCITEGIC>MOL_PROPERTY
Bond
SciTegic.value.DoubleValue
0.218

@<SCITEGIC>MOL_PROPERTY
Angle
SciTegic.value.DoubleValue
2.426

@<SCITEGIC>MOL_PROPERTY
Pdih
SciTegic.value.DoubleValue
9.745

@<SCITEGIC>MOL_PROPERTY
Idih
SciTegic.value.DoubleValue
0.000

@<SCITEGIC>MOL_PROPERTY
Tether
SciTegic.value.DoubleValue
0.000

@<TRIPOS>MOLECULE
guest-5_confgen4.mol2 : confsearch ligand conformer 788
          22          22           1
SMALL
USER_CHARGES
 
@<TRIPOS>ATOM
       1    C1      20.634566   20.085410   24.396110 C.3        1 MOL1        -0.1685
       2    H1      21.172756   21.005126   24.663045 H          1 MOL1         0.0832
       3    H2      20.423178   19.577140   25.346790 H          1 MOL1         0.0832
       4    C2      21.581259   19.198123   23.552801 C.3        1 MOL1        -0.1685
       5    H3      22.197818   19.834003   22.903192 H          1 MOL1         0.0832
       6    H4      22.286100   18.707311   24.237699 H          1 MOL1         0.0832
       7    C3      20.877482   18.118563   22.697938 C.3        1 MOL1        -0.1685
       8    H5      20.016518   17.693387   23.231607 H          1 MOL1         0.0832
       9    H6      21.582248   17.289734   22.547480 H          1 MOL1         0.0832
      10    C4      20.456911   18.639932   21.300306 C.3        1 MOL1        -0.1761
      11    H7      21.318268   19.122549   20.821082 H          1 MOL1         0.0832
      12    H8      20.210277   17.779115   20.665026 H          1 MOL1         0.0832
      13    C5      19.258137   19.615101   21.267374 C.3        1 MOL1         0.1218
      14    H9      19.209719   20.023617   20.247635 H          1 MOL1         0.0789
      15    C6      19.361415   20.819566   22.236439 C.3        1 MOL1        -0.1761
      16    H10     20.280541   21.383758   22.032055 H          1 MOL1         0.0832
      17    H11     18.535915   21.504199   22.002739 H          1 MOL1         0.0832
      18    C7      19.283019   20.461588   23.743397 C.3        1 MOL1        -0.1685
      19    H12     18.872434   21.321226   24.290083 H          1 MOL1         0.0832
      20    H13     18.563720   19.647061   23.900228 H          1 MOL1         0.0832
      21    O1      18.056631   18.891028   21.512573 O.3        1 MOL1        -0.5509
      22    H14     17.333308   19.550272   21.534627 H          1 MOL1         0.3779
@<TRIPOS>BOND
    1     1     2    1
    2     1     3    1
    3     1     4    1
    4     4     5    1
    5     4     6    1
    6     4     7    1
    7     7     8    1
    8     7     9    1
    9     7    10    1
   10    10    11    1
   11    10    12    1
   12    10    13    1
   13    13    14    1
   14    13    15    1
   15    15    16    1
   16    15    17    1
   17     1    18    1
   18    15    18    1
   19    18    19    1
   20    18    20    1
   21    13    21    1
   22    21    22    1
@<TRIPOS>SUBSTRUCTURE
       1 MOL1            1 RESIDUE      1      MOL     
@<SCITEGIC>MOL_PROPERTY
VConf Rank
SciTegic.value.IntegerValue
788

@<SCITEGIC>MOL_PROPERTY
Conf_Id
SciTegic.value.IntegerValue
95

@<SCITEGIC>MOL_PROPERTY
Delta U+W
SciTegic.value.DoubleValue
-2.289

@<SCITEGIC>MOL_PROPERTY
U+W
SciTegic.value.DoubleValue
4.134

@<SCITEGIC>MOL_PROPERTY
Grad RMS
SciTegic.value.DoubleValue
0.000000

@<SCITEGIC>MOL_PROPERTY
U
SciTegic.value.DoubleValue
6.373

@<SCITEGIC>MOL_PROPERTY
W
SciTegic.value.DoubleValue
-2.240

@<SCITEGIC>MOL_PROPERTY
W(PB)
SciTegic.value.DoubleValue
-4.254

@<SCITEGIC>MOL_PROPERTY
W(SA)
SciTegic.value.DoubleValue
2.015

@<SCITEGIC>MOL_PROPERTY
Valence
SciTegic.value.DoubleValue
12.093

@<SCITEGIC>MOL_PROPERTY
Coulomb
SciTegic.value.DoubleValue
-8.058

@<SCITEGIC>MOL_PROPERTY
VdW
SciTegic.value.DoubleValue
2.339

@<SCITEGIC>MOL_PROPERTY
VdW6
SciTegic.value.DoubleValue
-9.683

@<SCITEGIC>MOL_PROPERTY
VdW12
SciTegic.value.DoubleValue
12.022

@<SCITEGIC>MOL_PROPERTY
Bond
SciTegic.value.DoubleValue
0.268

@<SCITEGIC>MOL_PROPERTY
Angle
SciTegic.value.DoubleValue
3.005

@<SCITEGIC>MOL_PROPERTY
Pdih
SciTegic.value.DoubleValue
8.820

@<SCITEGIC>MOL_PROPERTY
Idih
SciTegic.value.DoubleValue
0.000

@<SCITEGIC>MOL_PROPERTY
Tether
SciTegic.value.DoubleValue
0.000

@<TRIPOS>MOLECULE
guest-5_confgen4.mol2 : confsearch ligand conformer 789
          22          22           1
SMALL
USER_CHARGES
 
@<TRIPOS>ATOM
       1    C1      21.440264   18.969480   23.834530 C.3        1 MOL1        -0.1685
       2    H1      21.719517   17.923898   24.023028 H          1 MOL1         0.0832
       3    H2      22.159068   19.576682   24.401467 H          1 MOL1         0.0832
       4    C2      20.023139   19.203256   24.410232 C.3        1 MOL1        -0.1685
       5    H3      19.415567   18.299799   24.264969 H          1 MOL1         0.0832
       6    H4      20.114544   19.323371   25.498357 H          1 MOL1         0.0832
       7    C3      19.274053   20.426041   23.831281 C.3        1 MOL1        -0.1685
       8    H5      19.964051   21.262428   23.654709 H          1 MOL1         0.0832
       9    H6      18.558136   20.775743   24.587321 H          1 MOL1         0.0832
      10    C4      18.476166   20.085017   22.547385 C.3        1 MOL1        -0.1761
      11    H7      17.862158   19.194137   22.732378 H          1 MOL1         0.0832
      12    H8      17.761795   20.895372   22.352497 H          1 MOL1         0.0832
      13    C5      19.310866   19.853165   21.267051 C.3        1 MOL1         0.1218
      14    H9      18.622816   19.455671   20.506994 H          1 MOL1         0.0789
      15    C6      20.467011   18.831990   21.411490 C.3        1 MOL1        -0.1761
      16    H10     20.072500   17.864472   21.747287 H          1 MOL1         0.0832
      17    H11     20.873132   18.657765   20.406731 H          1 MOL1         0.0832
      18    C7      21.632481   19.280903   22.331054 C.3        1 MOL1        -0.1685
      19    H12     22.554513   18.785050   21.999087 H          1 MOL1         0.0832
      20    H13     21.818236   20.355196   22.200633 H          1 MOL1         0.0832
      21    O1      19.815247   21.100629   20.799796 O.3        1 MOL1        -0.5509
      22    H14     19.051077   21.709751   20.743212 H          1 MOL1         0.3779
@<TRIPOS>BOND
    1     1     2    1
    2     1     3    1
    3     1     4    1
    4     4     5    1
    5     4     6    1
    6     4     7    1
    7     7     8    1
    8     7     9    1
    9     7    10    1
   10    10    11    1
   11    10    12    1
   12    10    13    1
   13    13    14    1
   14    13    15    1
   15    15    16    1
   16    15    17    1
   17     1    18    1
   18    15    18    1
   19    18    19    1
   20    18    20    1
   21    13    21    1
   22    21    22    1
@<TRIPOS>SUBSTRUCTURE
       1 MOL1            1 RESIDUE      1      MOL     
@<SCITEGIC>MOL_PROPERTY
VConf Rank
SciTegic.value.IntegerValue
789

@<SCITEGIC>MOL_PROPERTY
Conf_Id
SciTegic.value.IntegerValue
41

@<SCITEGIC>MOL_PROPERTY
Delta U+W
SciTegic.value.DoubleValue
-2.114

@<SCITEGIC>MOL_PROPERTY
U+W
SciTegic.value.DoubleValue
4.310

@<SCITEGIC>MOL_PROPERTY
Grad RMS
SciTegic.value.DoubleValue
0.000000

@<SCITEGIC>MOL_PROPERTY
U
SciTegic.value.DoubleValue
6.598

@<SCITEGIC>MOL_PROPERTY
W
SciTegic.value.DoubleValue
-2.289

@<SCITEGIC>MOL_PROPERTY
W(PB)
SciTegic.value.DoubleValue
-4.294

@<SCITEGIC>MOL_PROPERTY
W(SA)
SciTegic.value.DoubleValue
2.005

@<SCITEGIC>MOL_PROPERTY
Valence
SciTegic.value.DoubleValue
12.082

@<SCITEGIC>MOL_PROPERTY
Coulomb
SciTegic.value.DoubleValue
-7.801

@<SCITEGIC>MOL_PROPERTY
VdW
SciTegic.value.DoubleValue
2.317

@<SCITEGIC>MOL_PROPERTY
VdW6
SciTegic.value.DoubleValue
-9.658

@<SCITEGIC>MOL_PROPERTY
VdW12
SciTegic.value.DoubleValue
11.975

@<SCITEGIC>MOL_PROPERTY
Bond
SciTegic.value.DoubleValue
0.267

@<SCITEGIC>MOL_PROPERTY
Angle
SciTegic.value.DoubleValue
3.051

@<SCITEGIC>MOL_PROPERTY
Pdih
SciTegic.value.DoubleValue
8.764

@<SCITEGIC>MOL_PROPERTY
Idih
SciTegic.value.DoubleValue
0.000

@<SCITEGIC>MOL_PROPERTY
Tether
SciTegic.value.DoubleValue
0.000

@<TRIPOS>MOLECULE
guest-5_confgen4.mol2 : confsearch ligand conformer 790
          22          22           1
SMALL
USER_CHARGES
 
@<TRIPOS>ATOM
       1    C1      19.423409   18.246345   23.533436 C.3        1 MOL1        -0.1685
       2    H1      18.785822   17.558979   24.105764 H          1 MOL1         0.0832
       3    H2      20.161604   17.620590   23.013171 H          1 MOL1         0.0832
       4    C2      20.119618   19.193080   24.536617 C.3        1 MOL1        -0.1685
       5    H3      19.372394   19.851737   24.999660 H          1 MOL1         0.0832
       6    H4      20.538369   18.591068   25.354412 H          1 MOL1         0.0832
       7    C3      21.256440   20.047203   23.933846 C.3        1 MOL1        -0.1685
       8    H5      22.098280   19.396226   23.662876 H          1 MOL1         0.0832
       9    H6      21.638240   20.708060   24.723544 H          1 MOL1         0.0832
      10    C4      20.849913   20.923407   22.718039 C.3        1 MOL1        -0.1761
      11    H7      19.960560   21.517906   22.962744 H          1 MOL1         0.0832
      12    H8      21.654697   21.650191   22.548653 H          1 MOL1         0.0832
      13    C5      20.627274   20.169114   21.381811 C.3        1 MOL1         0.1218
      14    H9      20.667487   20.923963   20.583148 H          1 MOL1         0.0789
      15    C6      19.260593   19.452219   21.228893 C.3        1 MOL1        -0.1761
      16    H10     18.583503   20.125808   20.687701 H          1 MOL1         0.0832
      17    H11     19.385157   18.580833   20.572660 H          1 MOL1         0.0832
      18    C7      18.534195   19.000127   22.519962 C.3        1 MOL1        -0.1685
      19    H12     18.066655   19.866135   23.007660 H          1 MOL1         0.0832
      20    H13     17.703610   18.344242   22.225648 H          1 MOL1         0.0832
      21    O1      21.684047   19.241208   21.151282 O.3        1 MOL1        -0.5509
      22    H14     21.512020   18.827188   20.281280 H          1 MOL1         0.3779
@<TRIPOS>BOND
    1     1     2    1
    2     1     3    1
    3     1     4    1
    4     4     5    1
    5     4     6    1
    6     4     7    1
    7     7     8    1
    8     7     9    1
    9     7    10    1
   10    10    11    1
   11    10    12    1
   12    10    13    1
   13    13    14    1
   14    13    15    1
   15    15    16    1
   16    15    17    1
   17     1    18    1
   18    15    18    1
   19    18    19    1
   20    18    20    1
   21    13    21    1
   22    21    22    1
@<TRIPOS>SUBSTRUCTURE
       1 MOL1            1 RESIDUE      1      MOL     
@<SCITEGIC>MOL_PROPERTY
VConf Rank
SciTegic.value.IntegerValue
790

@<SCITEGIC>MOL_PROPERTY
Conf_Id
SciTegic.value.IntegerValue
104

@<SCITEGIC>MOL_PROPERTY
Delta U+W
SciTegic.value.DoubleValue
-1.172

@<SCITEGIC>MOL_PROPERTY
U+W
SciTegic.value.DoubleValue
5.252

@<SCITEGIC>MOL_PROPERTY
Grad RMS
SciTegic.value.DoubleValue
0.000000

@<SCITEGIC>MOL_PROPERTY
U
SciTegic.value.DoubleValue
7.482

@<SCITEGIC>MOL_PROPERTY
W
SciTegic.value.DoubleValue
-2.230

@<SCITEGIC>MOL_PROPERTY
W(PB)
SciTegic.value.DoubleValue
-4.220

@<SCITEGIC>MOL_PROPERTY
W(SA)
SciTegic.value.DoubleValue
1.990

@<SCITEGIC>MOL_PROPERTY
Valence
SciTegic.value.DoubleValue
12.309

@<SCITEGIC>MOL_PROPERTY
Coulomb
SciTegic.value.DoubleValue
-7.084

@<SCITEGIC>MOL_PROPERTY
VdW
SciTegic.value.DoubleValue
2.258

@<SCITEGIC>MOL_PROPERTY
VdW6
SciTegic.value.DoubleValue
-9.770

@<SCITEGIC>MOL_PROPERTY
VdW12
SciTegic.value.DoubleValue
12.028

@<SCITEGIC>MOL_PROPERTY
Bond
SciTegic.value.DoubleValue
0.284

@<SCITEGIC>MOL_PROPERTY
Angle
SciTegic.value.DoubleValue
3.491

@<SCITEGIC>MOL_PROPERTY
Pdih
SciTegic.value.DoubleValue
8.535

@<SCITEGIC>MOL_PROPERTY
Idih
SciTegic.value.DoubleValue
0.000

@<SCITEGIC>MOL_PROPERTY
Tether
SciTegic.value.DoubleValue
0.000

@<TRIPOS>MOLECULE
guest-5_confgen4.mol2 : confsearch ligand conformer 791
          22          22           1
SMALL
USER_CHARGES
 
@<TRIPOS>ATOM
       1    C1      19.236486   20.004993   24.028082 C.3        1 MOL1        -0.1685
       2    H1      19.933543   20.815576   24.280176 H          1 MOL1         0.0832
       3    H2      18.488405   19.988708   24.832475 H          1 MOL1         0.0832
       4    C2      19.957464   18.637635   24.025256 C.3        1 MOL1        -0.1685
       5    H3      20.064651   18.295966   25.064016 H          1 MOL1         0.0832
       6    H4      19.314470   17.888498   23.544955 H          1 MOL1         0.0832
       7    C3      21.364440   18.621712   23.375766 C.3        1 MOL1        -0.1685
       8    H5      21.574582   17.601448   23.026172 H          1 MOL1         0.0832
       9    H6      22.110193   18.820883   24.157503 H          1 MOL1         0.0832
      10    C4      21.624200   19.621202   22.216133 C.3        1 MOL1        -0.1761
      11    H7      21.815979   20.616828   22.636735 H          1 MOL1         0.0832
      12    H8      22.561300   19.331905   21.723028 H          1 MOL1         0.0832
      13    C5      20.528602   19.742809   21.132225 C.3        1 MOL1         0.1218
      14    H9      21.006038   20.148778   20.228828 H          1 MOL1         0.0789
      15    C6      19.403581   20.727332   21.523772 C.3        1 MOL1        -0.1761
      16    H10     19.853462   21.702035   21.753168 H          1 MOL1         0.0832
      17    H11     18.772118   20.893758   20.641274 H          1 MOL1         0.0832
      18    C7      18.494165   20.304167   22.703893 C.3        1 MOL1        -0.1685
      19    H12     17.778910   21.117826   22.885773 H          1 MOL1         0.0832
      20    H13     17.886335   19.436683   22.413219 H          1 MOL1         0.0832
      21    O1      19.980954   18.468487   20.831634 O.3        1 MOL1        -0.5509
      22    H14     19.653832   18.140292   21.692775 H          1 MOL1         0.3779
@<TRIPOS>BOND
    1     1     2    1
    2     1     3    1
    3     1     4    1
    4     4     5    1
    5     4     6    1
    6     4     7    1
    7     7     8    1
    8     7     9    1
    9     7    10    1
   10    10    11    1
   11    10    12    1
   12    10    13    1
   13    13    14    1
   14    13    15    1
   15    15    16    1
   16    15    17    1
   17     1    18    1
   18    15    18    1
   19    18    19    1
   20    18    20    1
   21    13    21    1
   22    21    22    1
@<TRIPOS>SUBSTRUCTURE
       1 MOL1            1 RESIDUE      1      MOL     
@<SCITEGIC>MOL_PROPERTY
VConf Rank
SciTegic.value.IntegerValue
791

@<SCITEGIC>MOL_PROPERTY
Conf_Id
SciTegic.value.IntegerValue
99

@<SCITEGIC>MOL_PROPERTY
Delta U+W
SciTegic.value.DoubleValue
-3.852

@<SCITEGIC>MOL_PROPERTY
U+W
SciTegic.value.DoubleValue
2.572

@<SCITEGIC>MOL_PROPERTY
Grad RMS
SciTegic.value.DoubleValue
0.000000

@<SCITEGIC>MOL_PROPERTY
U
SciTegic.value.DoubleValue
3.922

@<SCITEGIC>MOL_PROPERTY
W
SciTegic.value.DoubleValue
-1.350

@<SCITEGIC>MOL_PROPERTY
W(PB)
SciTegic.value.DoubleValue
-3.345

@<SCITEGIC>MOL_PROPERTY
W(SA)
SciTegic.value.DoubleValue
1.995

@<SCITEGIC>MOL_PROPERTY
Valence
SciTegic.value.DoubleValue
12.571

@<SCITEGIC>MOL_PROPERTY
Coulomb
SciTegic.value.DoubleValue
-10.581

@<SCITEGIC>MOL_PROPERTY
VdW
SciTegic.value.DoubleValue
1.932

@<SCITEGIC>MOL_PROPERTY
VdW6
SciTegic.value.DoubleValue
-10.483

@<SCITEGIC>MOL_PROPERTY
VdW12
SciTegic.value.DoubleValue
12.415

@<SCITEGIC>MOL_PROPERTY
Bond
SciTegic.value.DoubleValue
0.268

@<SCITEGIC>MOL_PROPERTY
Angle
SciTegic.value.DoubleValue
3.728

@<SCITEGIC>MOL_PROPERTY
Pdih
SciTegic.value.DoubleValue
8.575

@<SCITEGIC>MOL_PROPERTY
Idih
SciTegic.value.DoubleValue
0.000

@<SCITEGIC>MOL_PROPERTY
Tether
SciTegic.value.DoubleValue
0.000

@<TRIPOS>MOLECULE
guest-5_confgen4.mol2 : confsearch ligand conformer 792
          22          22           1
SMALL
USER_CHARGES
 
@<TRIPOS>ATOM
       1    C1      19.668287   20.437975   24.055289 C.3        1 MOL1        -0.1685
       2    H1      19.716972   20.602039   25.140648 H          1 MOL1         0.0832
       3    H2      19.042177   21.255346   23.673259 H          1 MOL1         0.0832
       4    C2      18.970268   19.068070   23.810375 C.3        1 MOL1        -0.1685
       5    H3      18.716683   18.639275   24.789722 H          1 MOL1         0.0832
       6    H4      18.004917   19.219504   23.309158 H          1 MOL1         0.0832
       7    C3      19.798647   18.013247   23.033274 C.3        1 MOL1        -0.1685
       8    H5      19.279254   17.047546   23.099433 H          1 MOL1         0.0832
       9    H6      20.756327   17.846508   23.541818 H          1 MOL1         0.0832
      10    C4      20.048871   18.316251   21.529809 C.3        1 MOL1        -0.1761
      11    H7      20.930870   17.747919   21.207600 H          1 MOL1         0.0832
      12    H8      19.211648   17.906155   20.949400 H          1 MOL1         0.0832
      13    C5      20.234131   19.792909   21.101651 C.3        1 MOL1         0.1218
      14    H9      20.618865   19.780965   20.071791 H          1 MOL1         0.0789
      15    C6      21.227840   20.630848   21.943402 C.3        1 MOL1        -0.1761
      16    H10     22.249194   20.336261   21.669914 H          1 MOL1         0.0832
      17    H11     21.132196   21.677004   21.623389 H          1 MOL1         0.0832
      18    C7      21.105440   20.578144   23.491640 C.3        1 MOL1        -0.1685
      19    H12     21.738021   19.773198   23.885936 H          1 MOL1         0.0832
      20    H13     21.547485   21.499294   23.895128 H          1 MOL1         0.0832
      21    O1      18.972443   20.441270   21.069825 O.3        1 MOL1        -0.5509
      22    H14     18.675337   20.426174   22.001723 H          1 MOL1         0.3779
@<TRIPOS>BOND
    1     1     2    1
    2     1     3    1
    3     1     4    1
    4     4     5    1
    5     4     6    1
    6     4     7    1
    7     7     8    1
    8     7     9    1
    9     7    10    1
   10    10    11    1
   11    10    12    1
   12    10    13    1
   13    13    14    1
   14    13    15    1
   15    15    16    1
   16    15    17    1
   17     1    18    1
   18    15    18    1
   19    18    19    1
   20    18    20    1
   21    13    21    1
   22    21    22    1
@<TRIPOS>SUBSTRUCTURE
       1 MOL1            1 RESIDUE      1      MOL     
@<SCITEGIC>MOL_PROPERTY
VConf Rank
SciTegic.value.IntegerValue
792

@<SCITEGIC>MOL_PROPERTY
Conf_Id
SciTegic.value.IntegerValue
98

@<SCITEGIC>MOL_PROPERTY
Delta U+W
SciTegic.value.DoubleValue
0.930

@<SCITEGIC>MOL_PROPERTY
U+W
SciTegic.value.DoubleValue
7.353

@<SCITEGIC>MOL_PROPERTY
Grad RMS
SciTegic.value.DoubleValue
0.000000

@<SCITEGIC>MOL_PROPERTY
U
SciTegic.value.DoubleValue
8.455

@<SCITEGIC>MOL_PROPERTY
W
SciTegic.value.DoubleValue
-1.102

@<SCITEGIC>MOL_PROPERTY
W(PB)
SciTegic.value.DoubleValue
-3.101

@<SCITEGIC>MOL_PROPERTY
W(SA)
SciTegic.value.DoubleValue
2.000

@<SCITEGIC>MOL_PROPERTY
Valence
SciTegic.value.DoubleValue
15.601

@<SCITEGIC>MOL_PROPERTY
Coulomb
SciTegic.value.DoubleValue
-10.573

@<SCITEGIC>MOL_PROPERTY
VdW
SciTegic.value.DoubleValue
3.427

@<SCITEGIC>MOL_PROPERTY
VdW6
SciTegic.value.DoubleValue
-11.360

@<SCITEGIC>MOL_PROPERTY
VdW12
SciTegic.value.DoubleValue
14.787

@<SCITEGIC>MOL_PROPERTY
Bond
SciTegic.value.DoubleValue
0.471

@<SCITEGIC>MOL_PROPERTY
Angle
SciTegic.value.DoubleValue
5.445

@<SCITEGIC>MOL_PROPERTY
Pdih
SciTegic.value.DoubleValue
9.685

@<SCITEGIC>MOL_PROPERTY
Idih
SciTegic.value.DoubleValue
0.000

@<SCITEGIC>MOL_PROPERTY
Tether
SciTegic.value.DoubleValue
0.000

@<TRIPOS>MOLECULE
guest-5_confgen4.mol2 : confsearch ligand conformer 793
          22          22           1
SMALL
USER_CHARGES
 
@<TRIPOS>ATOM
       1    C1      20.475018   18.334470   21.512850 C.3        1 MOL1        -0.1685
       2    H1      19.761949   18.797018   20.818327 H          1 MOL1         0.0832
       3    H2      20.950948   17.528410   20.937984 H          1 MOL1         0.0832
       4    C2      19.711386   17.705110   22.705717 C.3        1 MOL1        -0.1685
       5    H3      19.016686   16.958754   22.296792 H          1 MOL1         0.0832
       6    H4      20.413601   17.143543   23.336717 H          1 MOL1         0.0832
       7    C3      18.898278   18.686294   23.594974 C.3        1 MOL1        -0.1685
       8    H5      19.435278   18.877025   24.533200 H          1 MOL1         0.0832
       9    H6      17.969393   18.184298   23.897969 H          1 MOL1         0.0832
      10    C4      18.536666   20.036983   22.922230 C.3        1 MOL1        -0.1761
      11    H7      18.057339   19.840430   21.955153 H          1 MOL1         0.0832
      12    H8      17.761140   20.526586   23.526577 H          1 MOL1         0.0832
      13    C5      19.716780   21.031148   22.715257 C.3        1 MOL1         0.1218
      14    H9      19.651936   21.425420   21.690848 H          1 MOL1         0.0789
      15    C6      21.137362   20.447550   22.919257 C.3        1 MOL1        -0.1761
      16    H10     21.868293   21.264919   22.867243 H          1 MOL1         0.0832
      17    H11     21.229364   20.047070   23.935987 H          1 MOL1         0.0832
      18    C7      21.563402   19.364208   21.897168 C.3        1 MOL1        -0.1685
      19    H12     21.906160   19.858184   20.977756 H          1 MOL1         0.0832
      20    H13     22.437370   18.832462   22.297289 H          1 MOL1         0.0832
      21    O1      19.563372   22.109584   23.631018 O.3        1 MOL1        -0.5509
      22    H14     20.283532   22.746334   23.441023 H          1 MOL1         0.3779
@<TRIPOS>BOND
    1     1     2    1
    2     1     3    1
    3     1     4    1
    4     4     5    1
    5     4     6    1
    6     4     7    1
    7     7     8    1
    8     7     9    1
    9     7    10    1
   10    10    11    1
   11    10    12    1
   12    10    13    1
   13    13    14    1
   14    13    15    1
   15    15    16    1
   16    15    17    1
   17     1    18    1
   18    15    18    1
   19    18    19    1
   20    18    20    1
   21    13    21    1
   22    21    22    1
@<TRIPOS>SUBSTRUCTURE
       1 MOL1            1 RESIDUE      1      MOL     
@<SCITEGIC>MOL_PROPERTY
VConf Rank
SciTegic.value.IntegerValue
793

@<SCITEGIC>MOL_PROPERTY
Conf_Id
SciTegic.value.IntegerValue
141

@<SCITEGIC>MOL_PROPERTY
Delta U+W
SciTegic.value.DoubleValue
0.000

@<SCITEGIC>MOL_PROPERTY
U+W
SciTegic.value.DoubleValue
6.423

@<SCITEGIC>MOL_PROPERTY
Grad RMS
SciTegic.value.DoubleValue
0.000000

@<SCITEGIC>MOL_PROPERTY
U
SciTegic.value.DoubleValue
8.781

@<SCITEGIC>MOL_PROPERTY
W
SciTegic.value.DoubleValue
-2.358

@<SCITEGIC>MOL_PROPERTY
W(PB)
SciTegic.value.DoubleValue
-4.373

@<SCITEGIC>MOL_PROPERTY
W(SA)
SciTegic.value.DoubleValue
2.015

@<SCITEGIC>MOL_PROPERTY
Valence
SciTegic.value.DoubleValue
13.328

@<SCITEGIC>MOL_PROPERTY
Coulomb
SciTegic.value.DoubleValue
-8.387

@<SCITEGIC>MOL_PROPERTY
VdW
SciTegic.value.DoubleValue
3.840

@<SCITEGIC>MOL_PROPERTY
VdW6
SciTegic.value.DoubleValue
-9.744

@<SCITEGIC>MOL_PROPERTY
VdW12
SciTegic.value.DoubleValue
13.584

@<SCITEGIC>MOL_PROPERTY
Bond
SciTegic.value.DoubleValue
0.436

@<SCITEGIC>MOL_PROPERTY
Angle
SciTegic.value.DoubleValue
3.478

@<SCITEGIC>MOL_PROPERTY
Pdih
SciTegic.value.DoubleValue
9.415

@<SCITEGIC>MOL_PROPERTY
Idih
SciTegic.value.DoubleValue
0.000

@<SCITEGIC>MOL_PROPERTY
Tether
SciTegic.value.DoubleValue
0.000

@<TRIPOS>MOLECULE
guest-5_confgen4.mol2 : confsearch ligand conformer 794
          22          22           1
SMALL
USER_CHARGES
 
@<TRIPOS>ATOM
       1    C1      21.457854   19.935392   23.543243 C.3        1 MOL1        -0.1685
       2    H1      21.727513   18.875867   23.436945 H          1 MOL1         0.0832
       3    H2      22.302894   20.413728   24.057059 H          1 MOL1         0.0832
       4    C2      20.207825   20.101091   24.440810 C.3        1 MOL1        -0.1685
       5    H3      20.477017   19.826298   25.469829 H          1 MOL1         0.0832
       6    H4      19.925351   21.162029   24.479490 H          1 MOL1         0.0832
       7    C3      18.979780   19.259981   24.022754 C.3        1 MOL1        -0.1685
       8    H5      18.146136   19.515622   24.690970 H          1 MOL1         0.0832
       9    H6      19.189282   18.195977   24.198721 H          1 MOL1         0.0832
      10    C4      18.518308   19.459340   22.558350 C.3        1 MOL1        -0.1761
      11    H7      17.525956   19.000449   22.457651 H          1 MOL1         0.0832
      12    H8      18.385515   20.526073   22.335990 H          1 MOL1         0.0832
      13    C5      19.477868   18.808847   21.536718 C.3        1 MOL1         0.1218
      14    H9      19.909674   17.907779   21.995481 H          1 MOL1         0.0789
      15    C6      20.637176   19.720599   21.074109 C.3        1 MOL1        -0.1761
      16    H10     21.406469   19.077416   20.627619 H          1 MOL1         0.0832
      17    H11     20.284800   20.374106   20.264869 H          1 MOL1         0.0832
      18    C7      21.298270   20.606940   22.159191 C.3        1 MOL1        -0.1685
      19    H12     22.288859   20.909492   21.793106 H          1 MOL1         0.0832
      20    H13     20.728229   21.539480   22.269337 H          1 MOL1         0.0832
      21    O1      18.732635   18.425982   20.387257 O.3        1 MOL1        -0.5509
      22    H14     18.051646   17.790021   20.691272 H          1 MOL1         0.3779
@<TRIPOS>BOND
    1     1     2    1
    2     1     3    1
    3     1     4    1
    4     4     5    1
    5     4     6    1
    6     4     7    1
    7     7     8    1
    8     7     9    1
    9     7    10    1
   10    10    11    1
   11    10    12    1
   12    10    13    1
   13    13    14    1
   14    13    15    1
   15    15    16    1
   16    15    17    1
   17     1    18    1
   18    15    18    1
   19    18    19    1
   20    18    20    1
   21    13    21    1
   22    21    22    1
@<TRIPOS>SUBSTRUCTURE
       1 MOL1            1 RESIDUE      1      MOL     
@<SCITEGIC>MOL_PROPERTY
VConf Rank
SciTegic.value.IntegerValue
794

@<SCITEGIC>MOL_PROPERTY
Conf_Id
SciTegic.value.IntegerValue
144

@<SCITEGIC>MOL_PROPERTY
Delta U+W
SciTegic.value.DoubleValue
-3.291

@<SCITEGIC>MOL_PROPERTY
U+W
SciTegic.value.DoubleValue
3.132

@<SCITEGIC>MOL_PROPERTY
Grad RMS
SciTegic.value.DoubleValue
0.000000

@<SCITEGIC>MOL_PROPERTY
U
SciTegic.value.DoubleValue
5.411

@<SCITEGIC>MOL_PROPERTY
W
SciTegic.value.DoubleValue
-2.279

@<SCITEGIC>MOL_PROPERTY
W(PB)
SciTegic.value.DoubleValue
-4.300

@<SCITEGIC>MOL_PROPERTY
W(SA)
SciTegic.value.DoubleValue
2.021

@<SCITEGIC>MOL_PROPERTY
Valence
SciTegic.value.DoubleValue
11.909

@<SCITEGIC>MOL_PROPERTY
Coulomb
SciTegic.value.DoubleValue
-8.733

@<SCITEGIC>MOL_PROPERTY
VdW
SciTegic.value.DoubleValue
2.236

@<SCITEGIC>MOL_PROPERTY
VdW6
SciTegic.value.DoubleValue
-8.936

@<SCITEGIC>MOL_PROPERTY
VdW12
SciTegic.value.DoubleValue
11.172

@<SCITEGIC>MOL_PROPERTY
Bond
SciTegic.value.DoubleValue
0.223

@<SCITEGIC>MOL_PROPERTY
Angle
SciTegic.value.DoubleValue
2.457

@<SCITEGIC>MOL_PROPERTY
Pdih
SciTegic.value.DoubleValue
9.228

@<SCITEGIC>MOL_PROPERTY
Idih
SciTegic.value.DoubleValue
0.000

@<SCITEGIC>MOL_PROPERTY
Tether
SciTegic.value.DoubleValue
0.000

@<TRIPOS>MOLECULE
guest-5_confgen4.mol2 : confsearch ligand conformer 795
          22          22           1
SMALL
USER_CHARGES
 
@<TRIPOS>ATOM
       1    C1      20.342447   17.882377   22.877082 C.3        1 MOL1        -0.1685
       2    H1      20.707949   16.854656   22.746355 H          1 MOL1         0.0832
       3    H2      19.905461   17.923718   23.884066 H          1 MOL1         0.0832
       4    C2      19.266691   18.148349   21.798156 C.3        1 MOL1        -0.1685
       5    H3      19.756077   18.424734   20.854288 H          1 MOL1         0.0832
       6    H4      18.734416   17.210466   21.588262 H          1 MOL1         0.0832
       7    C3      18.214272   19.220459   22.170870 C.3        1 MOL1        -0.1685
       8    H5      17.426426   18.752433   22.776813 H          1 MOL1         0.0832
       9    H6      17.721832   19.552544   21.246618 H          1 MOL1         0.0832
      10    C4      18.738505   20.460447   22.936214 C.3        1 MOL1        -0.1761
      11    H7      17.988893   21.257277   22.838169 H          1 MOL1         0.0832
      12    H8      18.787661   20.228326   24.007940 H          1 MOL1         0.0832
      13    C5      20.113032   20.984684   22.463514 C.3        1 MOL1         0.1218
      14    H9      20.210223   20.836904   21.378533 H          1 MOL1         0.0789
      15    C6      21.291323   20.295345   23.188373 C.3        1 MOL1        -0.1761
      16    H10     22.205617   20.874916   23.003182 H          1 MOL1         0.0832
      17    H11     21.124859   20.329821   24.272895 H          1 MOL1         0.0832
      18    C7      21.558901   18.832181   22.762617 C.3        1 MOL1        -0.1685
      19    H12     21.938149   18.816632   21.731669 H          1 MOL1         0.0832
      20    H13     22.372026   18.436600   23.386420 H          1 MOL1         0.0832
      21    O1      20.181488   22.376137   22.745264 O.3        1 MOL1        -0.5509
      22    H14     20.089826   22.466619   23.716125 H          1 MOL1         0.3779
@<TRIPOS>BOND
    1     1     2    1
    2     1     3    1
    3     1     4    1
    4     4     5    1
    5     4     6    1
    6     4     7    1
    7     7     8    1
    8     7     9    1
    9     7    10    1
   10    10    11    1
   11    10    12    1
   12    10    13    1
   13    13    14    1
   14    13    15    1
   15    15    16    1
   16    15    17    1
   17     1    18    1
   18    15    18    1
   19    18    19    1
   20    18    20    1
   21    13    21    1
   22    21    22    1
@<TRIPOS>SUBSTRUCTURE
       1 MOL1            1 RESIDUE      1      MOL     
@<SCITEGIC>MOL_PROPERTY
VConf Rank
SciTegic.value.IntegerValue
795

@<SCITEGIC>MOL_PROPERTY
Conf_Id
SciTegic.value.IntegerValue
76

@<SCITEGIC>MOL_PROPERTY
Delta U+W
SciTegic.value.DoubleValue
-3.175

@<SCITEGIC>MOL_PROPERTY
U+W
SciTegic.value.DoubleValue
3.248

@<SCITEGIC>MOL_PROPERTY
Grad RMS
SciTegic.value.DoubleValue
0.000000

@<SCITEGIC>MOL_PROPERTY
U
SciTegic.value.DoubleValue
5.336

@<SCITEGIC>MOL_PROPERTY
W
SciTegic.value.DoubleValue
-2.088

@<SCITEGIC>MOL_PROPERTY
W(PB)
SciTegic.value.DoubleValue
-4.098

@<SCITEGIC>MOL_PROPERTY
W(SA)
SciTegic.value.DoubleValue
2.010

@<SCITEGIC>MOL_PROPERTY
Valence
SciTegic.value.DoubleValue
12.390

@<SCITEGIC>MOL_PROPERTY
Coulomb
SciTegic.value.DoubleValue
-9.270

@<SCITEGIC>MOL_PROPERTY
VdW
SciTegic.value.DoubleValue
2.216

@<SCITEGIC>MOL_PROPERTY
VdW6
SciTegic.value.DoubleValue
-8.967

@<SCITEGIC>MOL_PROPERTY
VdW12
SciTegic.value.DoubleValue
11.183

@<SCITEGIC>MOL_PROPERTY
Bond
SciTegic.value.DoubleValue
0.218

@<SCITEGIC>MOL_PROPERTY
Angle
SciTegic.value.DoubleValue
2.426

@<SCITEGIC>MOL_PROPERTY
Pdih
SciTegic.value.DoubleValue
9.745

@<SCITEGIC>MOL_PROPERTY
Idih
SciTegic.value.DoubleValue
0.000

@<SCITEGIC>MOL_PROPERTY
Tether
SciTegic.value.DoubleValue
0.000

@<TRIPOS>MOLECULE
guest-5_confgen4.mol2 : confsearch ligand conformer 796
          22          22           1
SMALL
USER_CHARGES
 
@<TRIPOS>ATOM
       1    C1      20.415672   18.258650   21.380242 C.3        1 MOL1        -0.1685
       2    H1      21.230247   18.258912   20.643188 H          1 MOL1         0.0832
       3    H2      19.894517   17.300641   21.248215 H          1 MOL1         0.0832
       4    C2      19.444194   19.410632   21.028329 C.3        1 MOL1        -0.1685
       5    H3      20.015503   20.269805   20.651624 H          1 MOL1         0.0832
       6    H4      18.818933   19.082198   20.186923 H          1 MOL1         0.0832
       7    C3      18.527435   19.870090   22.185909 C.3        1 MOL1        -0.1685
       8    H5      18.206496   19.015347   22.796850 H          1 MOL1         0.0832
       9    H6      17.612689   20.292975   21.749217 H          1 MOL1         0.0832
      10    C4      19.178666   20.964908   23.068718 C.3        1 MOL1        -0.1761
      11    H7      19.553385   21.771375   22.425516 H          1 MOL1         0.0832
      12    H8      18.398703   21.422715   23.691201 H          1 MOL1         0.0832
      13    C5      20.320697   20.500688   24.001115 C.3        1 MOL1         0.1218
      14    H9      20.785409   21.409535   24.409939 H          1 MOL1         0.0789
      15    C6      21.443524   19.684949   23.312409 C.3        1 MOL1        -0.1761
      16    H10     21.875682   20.268279   22.489097 H          1 MOL1         0.0832
      17    H11     22.254095   19.556542   24.041295 H          1 MOL1         0.0832
      18    C7      21.021617   18.281907   22.803799 C.3        1 MOL1        -0.1685
      19    H12     21.902275   17.625507   22.805983 H          1 MOL1         0.0832
      20    H13     20.315215   17.822682   23.507751 H          1 MOL1         0.0832
      21    O1      19.770222   19.758242   25.084523 O.3        1 MOL1        -0.5509
      22    H14     20.527043   19.441230   25.618385 H          1 MOL1         0.3779
@<TRIPOS>BOND
    1     1     2    1
    2     1     3    1
    3     1     4    1
    4     4     5    1
    5     4     6    1
    6     4     7    1
    7     7     8    1
    8     7     9    1
    9     7    10    1
   10    10    11    1
   11    10    12    1
   12    10    13    1
   13    13    14    1
   14    13    15    1
   15    15    16    1
   16    15    17    1
   17     1    18    1
   18    15    18    1
   19    18    19    1
   20    18    20    1
   21    13    21    1
   22    21    22    1
@<TRIPOS>SUBSTRUCTURE
       1 MOL1            1 RESIDUE      1      MOL     
@<SCITEGIC>MOL_PROPERTY
VConf Rank
SciTegic.value.IntegerValue
796

@<SCITEGIC>MOL_PROPERTY
Conf_Id
SciTegic.value.IntegerValue
95

@<SCITEGIC>MOL_PROPERTY
Delta U+W
SciTegic.value.DoubleValue
-2.289

@<SCITEGIC>MOL_PROPERTY
U+W
SciTegic.value.DoubleValue
4.134

@<SCITEGIC>MOL_PROPERTY
Grad RMS
SciTegic.value.DoubleValue
0.000000

@<SCITEGIC>MOL_PROPERTY
U
SciTegic.value.DoubleValue
6.373

@<SCITEGIC>MOL_PROPERTY
W
SciTegic.value.DoubleValue
-2.240

@<SCITEGIC>MOL_PROPERTY
W(PB)
SciTegic.value.DoubleValue
-4.254

@<SCITEGIC>MOL_PROPERTY
W(SA)
SciTegic.value.DoubleValue
2.015

@<SCITEGIC>MOL_PROPERTY
Valence
SciTegic.value.DoubleValue
12.093

@<SCITEGIC>MOL_PROPERTY
Coulomb
SciTegic.value.DoubleValue
-8.058

@<SCITEGIC>MOL_PROPERTY
VdW
SciTegic.value.DoubleValue
2.339

@<SCITEGIC>MOL_PROPERTY
VdW6
SciTegic.value.DoubleValue
-9.683

@<SCITEGIC>MOL_PROPERTY
VdW12
SciTegic.value.DoubleValue
12.022

@<SCITEGIC>MOL_PROPERTY
Bond
SciTegic.value.DoubleValue
0.268

@<SCITEGIC>MOL_PROPERTY
Angle
SciTegic.value.DoubleValue
3.005

@<SCITEGIC>MOL_PROPERTY
Pdih
SciTegic.value.DoubleValue
8.820

@<SCITEGIC>MOL_PROPERTY
Idih
SciTegic.value.DoubleValue
0.000

@<SCITEGIC>MOL_PROPERTY
Tether
SciTegic.value.DoubleValue
0.000

@<TRIPOS>MOLECULE
guest-5_confgen4.mol2 : confsearch ligand conformer 797
          22          22           1
SMALL
USER_CHARGES
 
@<TRIPOS>ATOM
       1    C1      20.147693   17.721752   22.787688 C.3        1 MOL1        -0.1685
       2    H1      19.452457   17.027842   23.279511 H          1 MOL1         0.0832
       3    H2      20.908484   17.091074   22.307861 H          1 MOL1         0.0832
       4    C2      20.826527   18.582060   23.880108 C.3        1 MOL1        -0.1685
       5    H3      20.104021   18.795181   24.679511 H          1 MOL1         0.0832
       6    H4      21.612955   17.975537   24.349638 H          1 MOL1         0.0832
       7    C3      21.446291   19.907496   23.379480 C.3        1 MOL1        -0.1685
       8    H5      21.902314   19.778695   22.388383 H          1 MOL1         0.0832
       9    H6      22.265494   20.178180   24.059232 H          1 MOL1         0.0832
      10    C4      20.430507   21.077739   23.374556 C.3        1 MOL1        -0.1761
      11    H7      19.931731   21.124199   24.351265 H          1 MOL1         0.0832
      12    H8      20.983257   22.021889   23.284949 H          1 MOL1         0.0832
      13    C5      19.350554   21.038811   22.269151 C.3        1 MOL1         0.1218
      14    H9      18.620817   21.825234   22.510236 H          1 MOL1         0.0789
      15    C6      18.565197   19.707509   22.163406 C.3        1 MOL1        -0.1761
      16    H10     18.085891   19.478025   23.123662 H          1 MOL1         0.0832
      17    H11     17.746276   19.869890   21.450784 H          1 MOL1         0.0832
      18    C7      19.393430   18.490051   21.676303 C.3        1 MOL1        -0.1685
      19    H12     18.719046   17.782622   21.175335 H          1 MOL1         0.0832
      20    H13     20.105493   18.808252   20.903430 H          1 MOL1         0.0832
      21    O1      19.946753   21.356255   21.015090 O.3        1 MOL1        -0.5509
      22    H14     20.441148   22.191524   21.141913 H          1 MOL1         0.3779
@<TRIPOS>BOND
    1     1     2    1
    2     1     3    1
    3     1     4    1
    4     4     5    1
    5     4     6    1
    6     4     7    1
    7     7     8    1
    8     7     9    1
    9     7    10    1
   10    10    11    1
   11    10    12    1
   12    10    13    1
   13    13    14    1
   14    13    15    1
   15    15    16    1
   16    15    17    1
   17     1    18    1
   18    15    18    1
   19    18    19    1
   20    18    20    1
   21    13    21    1
   22    21    22    1
@<TRIPOS>SUBSTRUCTURE
       1 MOL1            1 RESIDUE      1      MOL     
@<SCITEGIC>MOL_PROPERTY
VConf Rank
SciTegic.value.IntegerValue
797

@<SCITEGIC>MOL_PROPERTY
Conf_Id
SciTegic.value.IntegerValue
41

@<SCITEGIC>MOL_PROPERTY
Delta U+W
SciTegic.value.DoubleValue
-2.114

@<SCITEGIC>MOL_PROPERTY
U+W
SciTegic.value.DoubleValue
4.310

@<SCITEGIC>MOL_PROPERTY
Grad RMS
SciTegic.value.DoubleValue
0.000000

@<SCITEGIC>MOL_PROPERTY
U
SciTegic.value.DoubleValue
6.598

@<SCITEGIC>MOL_PROPERTY
W
SciTegic.value.DoubleValue
-2.289

@<SCITEGIC>MOL_PROPERTY
W(PB)
SciTegic.value.DoubleValue
-4.294

@<SCITEGIC>MOL_PROPERTY
W(SA)
SciTegic.value.DoubleValue
2.005

@<SCITEGIC>MOL_PROPERTY
Valence
SciTegic.value.DoubleValue
12.082

@<SCITEGIC>MOL_PROPERTY
Coulomb
SciTegic.value.DoubleValue
-7.801

@<SCITEGIC>MOL_PROPERTY
VdW
SciTegic.value.DoubleValue
2.317

@<SCITEGIC>MOL_PROPERTY
VdW6
SciTegic.value.DoubleValue
-9.658

@<SCITEGIC>MOL_PROPERTY
VdW12
SciTegic.value.DoubleValue
11.975

@<SCITEGIC>MOL_PROPERTY
Bond
SciTegic.value.DoubleValue
0.267

@<SCITEGIC>MOL_PROPERTY
Angle
SciTegic.value.DoubleValue
3.051

@<SCITEGIC>MOL_PROPERTY
Pdih
SciTegic.value.DoubleValue
8.764

@<SCITEGIC>MOL_PROPERTY
Idih
SciTegic.value.DoubleValue
0.000

@<SCITEGIC>MOL_PROPERTY
Tether
SciTegic.value.DoubleValue
0.000

@<TRIPOS>MOLECULE
guest-5_confgen4.mol2 : confsearch ligand conformer 798
          22          22           1
SMALL
USER_CHARGES
 
@<TRIPOS>ATOM
       1    C1      21.341379   18.445208   22.641397 C.3        1 MOL1        -0.1685
       2    H1      22.267619   17.872485   22.784987 H          1 MOL1         0.0832
       3    H2      20.645004   17.777784   22.115295 H          1 MOL1         0.0832
       4    C2      21.676765   19.678869   21.773650 C.3        1 MOL1        -0.1685
       5    H3      22.323153   20.362351   22.340761 H          1 MOL1         0.0832
       6    H4      22.270756   19.349496   20.910373 H          1 MOL1         0.0832
       7    C3      20.446499   20.450440   21.247964 C.3        1 MOL1        -0.1685
       8    H5      19.914719   19.832623   20.512163 H          1 MOL1         0.0832
       9    H6      20.808335   21.324967   20.690826 H          1 MOL1         0.0832
      10    C4      19.459370   20.942074   22.341150 C.3        1 MOL1        -0.1761
      11    H7      20.002619   21.494396   23.118375 H          1 MOL1         0.0832
      12    H8      18.784941   21.672068   21.875491 H          1 MOL1         0.0832
      13    C5      18.571250   19.851595   22.993937 C.3        1 MOL1         0.1218
      14    H9      17.737836   20.375469   23.484093 H          1 MOL1         0.0789
      15    C6      19.249739   18.995918   24.095123 C.3        1 MOL1        -0.1761
      16    H10     19.006151   19.441452   25.068379 H          1 MOL1         0.0832
      17    H11     18.787181   18.000288   24.110293 H          1 MOL1         0.0832
      18    C7      20.787995   18.826470   24.032232 C.3        1 MOL1        -0.1685
      19    H12     21.279014   19.741675   24.389605 H          1 MOL1         0.0832
      20    H13     21.068928   18.042762   24.748862 H          1 MOL1         0.0832
      21    O1      18.016627   18.997803   21.996764 O.3        1 MOL1        -0.5509
      22    H14     17.438006   18.359437   22.461087 H          1 MOL1         0.3779
@<TRIPOS>BOND
    1     1     2    1
    2     1     3    1
    3     1     4    1
    4     4     5    1
    5     4     6    1
    6     4     7    1
    7     7     8    1
    8     7     9    1
    9     7    10    1
   10    10    11    1
   11    10    12    1
   12    10    13    1
   13    13    14    1
   14    13    15    1
   15    15    16    1
   16    15    17    1
   17     1    18    1
   18    15    18    1
   19    18    19    1
   20    18    20    1
   21    13    21    1
   22    21    22    1
@<TRIPOS>SUBSTRUCTURE
       1 MOL1            1 RESIDUE      1      MOL     
@<SCITEGIC>MOL_PROPERTY
VConf Rank
SciTegic.value.IntegerValue
798

@<SCITEGIC>MOL_PROPERTY
Conf_Id
SciTegic.value.IntegerValue
104

@<SCITEGIC>MOL_PROPERTY
Delta U+W
SciTegic.value.DoubleValue
-1.172

@<SCITEGIC>MOL_PROPERTY
U+W
SciTegic.value.DoubleValue
5.252

@<SCITEGIC>MOL_PROPERTY
Grad RMS
SciTegic.value.DoubleValue
0.000000

@<SCITEGIC>MOL_PROPERTY
U
SciTegic.value.DoubleValue
7.482

@<SCITEGIC>MOL_PROPERTY
W
SciTegic.value.DoubleValue
-2.230

@<SCITEGIC>MOL_PROPERTY
W(PB)
SciTegic.value.DoubleValue
-4.220

@<SCITEGIC>MOL_PROPERTY
W(SA)
SciTegic.value.DoubleValue
1.990

@<SCITEGIC>MOL_PROPERTY
Valence
SciTegic.value.DoubleValue
12.309

@<SCITEGIC>MOL_PROPERTY
Coulomb
SciTegic.value.DoubleValue
-7.084

@<SCITEGIC>MOL_PROPERTY
VdW
SciTegic.value.DoubleValue
2.258

@<SCITEGIC>MOL_PROPERTY
VdW6
SciTegic.value.DoubleValue
-9.770

@<SCITEGIC>MOL_PROPERTY
VdW12
SciTegic.value.DoubleValue
12.028

@<SCITEGIC>MOL_PROPERTY
Bond
SciTegic.value.DoubleValue
0.284

@<SCITEGIC>MOL_PROPERTY
Angle
SciTegic.value.DoubleValue
3.491

@<SCITEGIC>MOL_PROPERTY
Pdih
SciTegic.value.DoubleValue
8.535

@<SCITEGIC>MOL_PROPERTY
Idih
SciTegic.value.DoubleValue
0.000

@<SCITEGIC>MOL_PROPERTY
Tether
SciTegic.value.DoubleValue
0.000

@<TRIPOS>MOLECULE
guest-5_confgen4.mol2 : confsearch ligand conformer 799
          22          22           1
SMALL
USER_CHARGES
 
@<TRIPOS>ATOM
       1    C1      19.719805   19.853052   21.082407 C.3        1 MOL1        -0.1685
       2    H1      18.689394   20.169822   21.293106 H          1 MOL1         0.0832
       3    H2      19.831271   19.894408   19.990252 H          1 MOL1         0.0832
       4    C2      19.949393   18.390172   21.525978 C.3        1 MOL1        -0.1685
       5    H3      19.529781   17.722218   20.761117 H          1 MOL1         0.0832
       6    H4      21.026195   18.176116   21.529928 H          1 MOL1         0.0832
       7    C3      19.326718   17.996284   22.889356 C.3        1 MOL1        -0.1685
       8    H5      19.897851   17.153131   23.301927 H          1 MOL1         0.0832
       9    H6      18.316697   17.603339   22.709409 H          1 MOL1         0.0832
      10    C4      19.210678   19.108661   23.966554 C.3        1 MOL1        -0.1761
      11    H7      18.342242   19.740051   23.738254 H          1 MOL1         0.0832
      12    H8      18.973412   18.628807   24.924910 H          1 MOL1         0.0832
      13    C5      20.443633   20.017358   24.176493 C.3        1 MOL1         0.1218
      14    H9      20.361796   20.452131   25.183050 H          1 MOL1         0.0789
      15    C6      20.494436   21.199282   23.182138 C.3        1 MOL1        -0.1761
      16    H10     19.557773   21.766193   23.261737 H          1 MOL1         0.0832
      17    H11     21.284959   21.887471   23.508811 H          1 MOL1         0.0832
      18    C7      20.739903   20.841908   21.695256 C.3        1 MOL1        -0.1685
      19    H12     20.707306   21.774390   21.115493 H          1 MOL1         0.0832
      20    H13     21.758943   20.451814   21.569302 H          1 MOL1         0.0832
      21    O1      21.640910   19.259452   24.097263 O.3        1 MOL1        -0.5509
      22    H14     21.600615   18.841463   23.214117 H          1 MOL1         0.3779
@<TRIPOS>BOND
    1     1     2    1
    2     1     3    1
    3     1     4    1
    4     4     5    1
    5     4     6    1
    6     4     7    1
    7     7     8    1
    8     7     9    1
    9     7    10    1
   10    10    11    1
   11    10    12    1
   12    10    13    1
   13    13    14    1
   14    13    15    1
   15    15    16    1
   16    15    17    1
   17     1    18    1
   18    15    18    1
   19    18    19    1
   20    18    20    1
   21    13    21    1
   22    21    22    1
@<TRIPOS>SUBSTRUCTURE
       1 MOL1            1 RESIDUE      1      MOL     
@<SCITEGIC>MOL_PROPERTY
VConf Rank
SciTegic.value.IntegerValue
799

@<SCITEGIC>MOL_PROPERTY
Conf_Id
SciTegic.value.IntegerValue
99

@<SCITEGIC>MOL_PROPERTY
Delta U+W
SciTegic.value.DoubleValue
-3.852

@<SCITEGIC>MOL_PROPERTY
U+W
SciTegic.value.DoubleValue
2.572

@<SCITEGIC>MOL_PROPERTY
Grad RMS
SciTegic.value.DoubleValue
0.000000

@<SCITEGIC>MOL_PROPERTY
U
SciTegic.value.DoubleValue
3.922

@<SCITEGIC>MOL_PROPERTY
W
SciTegic.value.DoubleValue
-1.350

@<SCITEGIC>MOL_PROPERTY
W(PB)
SciTegic.value.DoubleValue
-3.345

@<SCITEGIC>MOL_PROPERTY
W(SA)
SciTegic.value.DoubleValue
1.995

@<SCITEGIC>MOL_PROPERTY
Valence
SciTegic.value.DoubleValue
12.571

@<SCITEGIC>MOL_PROPERTY
Coulomb
SciTegic.value.DoubleValue
-10.581

@<SCITEGIC>MOL_PROPERTY
VdW
SciTegic.value.DoubleValue
1.932

@<SCITEGIC>MOL_PROPERTY
VdW6
SciTegic.value.DoubleValue
-10.483

@<SCITEGIC>MOL_PROPERTY
VdW12
SciTegic.value.DoubleValue
12.415

@<SCITEGIC>MOL_PROPERTY
Bond
SciTegic.value.DoubleValue
0.268

@<SCITEGIC>MOL_PROPERTY
Angle
SciTegic.value.DoubleValue
3.728

@<SCITEGIC>MOL_PROPERTY
Pdih
SciTegic.value.DoubleValue
8.575

@<SCITEGIC>MOL_PROPERTY
Idih
SciTegic.value.DoubleValue
0.000

@<SCITEGIC>MOL_PROPERTY
Tether
SciTegic.value.DoubleValue
0.000

@<TRIPOS>MOLECULE
guest-5_confgen4.mol2 : confsearch ligand conformer 800
          22          22           1
SMALL
USER_CHARGES
 
@<TRIPOS>ATOM
       1    C1      20.093629   18.164933   23.537973 C.3        1 MOL1        -0.1685
       2    H1      19.945672   17.589086   24.461986 H          1 MOL1         0.0832
       3    H2      20.397621   17.422903   22.787617 H          1 MOL1         0.0832
       4    C2      21.247871   19.179511   23.787391 C.3        1 MOL1        -0.1685
       5    H3      21.599614   19.042691   24.819305 H          1 MOL1         0.0832
       6    H4      22.112894   18.930768   23.158172 H          1 MOL1         0.0832
       7    C3      20.887395   20.676134   23.605931 C.3        1 MOL1        -0.1685
       8    H5      21.716981   21.281935   23.995184 H          1 MOL1         0.0832
       9    H6      20.034747   20.932041   24.247080 H          1 MOL1         0.0832
      10    C4      20.605115   21.137091   22.148993 C.3        1 MOL1        -0.1761
      11    H7      20.001045   22.052605   22.189907 H          1 MOL1         0.0832
      12    H8      21.556396   21.437554   21.689882 H          1 MOL1         0.0832
      13    C5      19.917130   20.138687   21.185653 C.3        1 MOL1         0.1218
      14    H9      19.604125   20.712194   20.301407 H          1 MOL1         0.0789
      15    C6      18.655291   19.422805   21.727334 C.3        1 MOL1        -0.1761
      16    H10     17.820700   20.135627   21.718194 H          1 MOL1         0.0832
      17    H11     18.379981   18.644571   21.003073 H          1 MOL1         0.0832
      18    C7      18.726408   18.776560   23.138755 C.3        1 MOL1        -0.1685
      19    H12     18.411413   19.505229   23.895979 H          1 MOL1         0.0832
      20    H13     17.966173   17.984930   23.184467 H          1 MOL1         0.0832
      21    O1      20.860326   19.173853   20.746655 O.3        1 MOL1        -0.5509
      22    H14     21.105345   18.694194   21.563249 H          1 MOL1         0.3779
@<TRIPOS>BOND
    1     1     2    1
    2     1     3    1
    3     1     4    1
    4     4     5    1
    5     4     6    1
    6     4     7    1
    7     7     8    1
    8     7     9    1
    9     7    10    1
   10    10    11    1
   11    10    12    1
   12    10    13    1
   13    13    14    1
   14    13    15    1
   15    15    16    1
   16    15    17    1
   17     1    18    1
   18    15    18    1
   19    18    19    1
   20    18    20    1
   21    13    21    1
   22    21    22    1
@<TRIPOS>SUBSTRUCTURE
       1 MOL1            1 RESIDUE      1      MOL     
@<SCITEGIC>MOL_PROPERTY
VConf Rank
SciTegic.value.IntegerValue
800

@<SCITEGIC>MOL_PROPERTY
Conf_Id
SciTegic.value.IntegerValue
98

@<SCITEGIC>MOL_PROPERTY
Delta U+W
SciTegic.value.DoubleValue
0.930

@<SCITEGIC>MOL_PROPERTY
U+W
SciTegic.value.DoubleValue
7.353

@<SCITEGIC>MOL_PROPERTY
Grad RMS
SciTegic.value.DoubleValue
0.000000

@<SCITEGIC>MOL_PROPERTY
U
SciTegic.value.DoubleValue
8.455

@<SCITEGIC>MOL_PROPERTY
W
SciTegic.value.DoubleValue
-1.102

@<SCITEGIC>MOL_PROPERTY
W(PB)
SciTegic.value.DoubleValue
-3.101

@<SCITEGIC>MOL_PROPERTY
W(SA)
SciTegic.value.DoubleValue
2.000

@<SCITEGIC>MOL_PROPERTY
Valence
SciTegic.value.DoubleValue
15.601

@<SCITEGIC>MOL_PROPERTY
Coulomb
SciTegic.value.DoubleValue
-10.573

@<SCITEGIC>MOL_PROPERTY
VdW
SciTegic.value.DoubleValue
3.427

@<SCITEGIC>MOL_PROPERTY
VdW6
SciTegic.value.DoubleValue
-11.360

@<SCITEGIC>MOL_PROPERTY
VdW12
SciTegic.value.DoubleValue
14.787

@<SCITEGIC>MOL_PROPERTY
Bond
SciTegic.value.DoubleValue
0.471

@<SCITEGIC>MOL_PROPERTY
Angle
SciTegic.value.DoubleValue
5.445

@<SCITEGIC>MOL_PROPERTY
Pdih
SciTegic.value.DoubleValue
9.685

@<SCITEGIC>MOL_PROPERTY
Idih
SciTegic.value.DoubleValue
0.000

@<SCITEGIC>MOL_PROPERTY
Tether
SciTegic.value.DoubleValue
0.000

@<TRIPOS>MOLECULE
guest-5_confgen4.mol2 : confsearch ligand conformer 801
          22          22           1
SMALL
USER_CHARGES
 
@<TRIPOS>ATOM
       1    C1      18.782188   20.355378   23.525633 C.3        1 MOL1        -0.1685
       2    H1      18.142559   20.221077   22.643807 H          1 MOL1         0.0832
       3    H2      18.140264   20.842982   24.271882 H          1 MOL1         0.0832
       4    C2      19.953405   21.310792   23.182712 C.3        1 MOL1        -0.1685
       5    H3      19.517226   22.266441   22.861217 H          1 MOL1         0.0832
       6    H4      20.523401   21.535752   24.094370 H          1 MOL1         0.0832
       7    C3      20.931016   20.828690   22.075239 C.3        1 MOL1        -0.1685
       8    H5      21.862805   20.465438   22.527823 H          1 MOL1         0.0832
       9    H6      21.228411   21.700988   21.477504 H          1 MOL1         0.0832
      10    C4      20.361581   19.744198   21.122699 C.3        1 MOL1        -0.1761
      11    H7      19.398843   20.086015   20.722795 H          1 MOL1         0.0832
      12    H8      21.021035   19.673438   20.247199 H          1 MOL1         0.0832
      13    C5      20.185060   18.324461   21.736749 C.3        1 MOL1         0.1218
      14    H9      19.191797   17.951517   21.447944 H          1 MOL1         0.0789
      15    C6      20.305491   18.233974   23.278685 C.3        1 MOL1        -0.1761
      16    H10     20.285607   17.177268   23.575390 H          1 MOL1         0.0832
      17    H11     21.289841   18.600210   23.594147 H          1 MOL1         0.0832
      18    C7      19.200572   18.971486   24.075577 C.3        1 MOL1        -0.1685
      19    H12     18.306056   18.335026   24.115273 H          1 MOL1         0.0832
      20    H13     19.536990   19.083553   25.115257 H          1 MOL1         0.0832
      21    O1      21.175167   17.466723   21.180735 O.3        1 MOL1        -0.5509
      22    H14     21.005938   16.570396   21.538698 H          1 MOL1         0.3779
@<TRIPOS>BOND
    1     1     2    1
    2     1     3    1
    3     1     4    1
    4     4     5    1
    5     4     6    1
    6     4     7    1
    7     7     8    1
    8     7     9    1
    9     7    10    1
   10    10    11    1
   11    10    12    1
   12    10    13    1
   13    13    14    1
   14    13    15    1
   15    15    16    1
   16    15    17    1
   17     1    18    1
   18    15    18    1
   19    18    19    1
   20    18    20    1
   21    13    21    1
   22    21    22    1
@<TRIPOS>SUBSTRUCTURE
       1 MOL1            1 RESIDUE      1      MOL     
@<SCITEGIC>MOL_PROPERTY
VConf Rank
SciTegic.value.IntegerValue
801

@<SCITEGIC>MOL_PROPERTY
Conf_Id
SciTegic.value.IntegerValue
141

@<SCITEGIC>MOL_PROPERTY
Delta U+W
SciTegic.value.DoubleValue
0.000

@<SCITEGIC>MOL_PROPERTY
U+W
SciTegic.value.DoubleValue
6.423

@<SCITEGIC>MOL_PROPERTY
Grad RMS
SciTegic.value.DoubleValue
0.000000

@<SCITEGIC>MOL_PROPERTY
U
SciTegic.value.DoubleValue
8.781

@<SCITEGIC>MOL_PROPERTY
W
SciTegic.value.DoubleValue
-2.358

@<SCITEGIC>MOL_PROPERTY
W(PB)
SciTegic.value.DoubleValue
-4.373

@<SCITEGIC>MOL_PROPERTY
W(SA)
SciTegic.value.DoubleValue
2.015

@<SCITEGIC>MOL_PROPERTY
Valence
SciTegic.value.DoubleValue
13.328

@<SCITEGIC>MOL_PROPERTY
Coulomb
SciTegic.value.DoubleValue
-8.387

@<SCITEGIC>MOL_PROPERTY
VdW
SciTegic.value.DoubleValue
3.840

@<SCITEGIC>MOL_PROPERTY
VdW6
SciTegic.value.DoubleValue
-9.744

@<SCITEGIC>MOL_PROPERTY
VdW12
SciTegic.value.DoubleValue
13.584

@<SCITEGIC>MOL_PROPERTY
Bond
SciTegic.value.DoubleValue
0.436

@<SCITEGIC>MOL_PROPERTY
Angle
SciTegic.value.DoubleValue
3.478

@<SCITEGIC>MOL_PROPERTY
Pdih
SciTegic.value.DoubleValue
9.415

@<SCITEGIC>MOL_PROPERTY
Idih
SciTegic.value.DoubleValue
0.000

@<SCITEGIC>MOL_PROPERTY
Tether
SciTegic.value.DoubleValue
0.000

@<TRIPOS>MOLECULE
guest-5_confgen4.mol2 : confsearch ligand conformer 802
          22          22           1
SMALL
USER_CHARGES
 
@<TRIPOS>ATOM
       1    C1      19.804240   21.333976   22.421784 C.3        1 MOL1        -0.1685
       2    H1      20.630072   21.297203   21.698418 H          1 MOL1         0.0832
       3    H2      19.448484   22.373368   22.423908 H          1 MOL1         0.0832
       4    C2      20.303876   21.005741   23.849468 C.3        1 MOL1        -0.1685
       5    H3      20.948457   21.826747   24.191988 H          1 MOL1         0.0832
       6    H4      19.449277   20.989541   24.539596 H          1 MOL1         0.0832
       7    C3      21.094508   19.683916   23.983666 C.3        1 MOL1        -0.1685
       8    H5      21.331804   19.533178   25.045643 H          1 MOL1         0.0832
       9    H6      22.061510   19.783595   23.471874 H          1 MOL1         0.0832
      10    C4      20.360151   18.426284   23.458058 C.3        1 MOL1        -0.1761
      11    H7      20.911442   17.546487   23.815157 H          1 MOL1         0.0832
      12    H8      19.355076   18.354416   23.893554 H          1 MOL1         0.0832
      13    C5      20.286169   18.379852   21.915334 C.3        1 MOL1         0.1218
      14    H9      21.192760   18.854150   21.512871 H          1 MOL1         0.0789
      15    C6      19.055934   19.093453   21.309865 C.3        1 MOL1        -0.1761
      16    H10     19.268533   19.277117   20.248772 H          1 MOL1         0.0832
      17    H11     18.194360   18.412736   21.330498 H          1 MOL1         0.0832
      18    C7      18.633578   20.429320   21.971016 C.3        1 MOL1        -0.1685
      19    H12     18.011840   20.981610   21.253213 H          1 MOL1         0.0832
      20    H13     17.979458   20.223838   22.829278 H          1 MOL1         0.0832
      21    O1      20.256395   17.020204   21.498573 O.3        1 MOL1        -0.5509
      22    H14     21.081132   16.605777   21.828237 H          1 MOL1         0.3779
@<TRIPOS>BOND
    1     1     2    1
    2     1     3    1
    3     1     4    1
    4     4     5    1
    5     4     6    1
    6     4     7    1
    7     7     8    1
    8     7     9    1
    9     7    10    1
   10    10    11    1
   11    10    12    1
   12    10    13    1
   13    13    14    1
   14    13    15    1
   15    15    16    1
   16    15    17    1
   17     1    18    1
   18    15    18    1
   19    18    19    1
   20    18    20    1
   21    13    21    1
   22    21    22    1
@<TRIPOS>SUBSTRUCTURE
       1 MOL1            1 RESIDUE      1      MOL     
@<SCITEGIC>MOL_PROPERTY
VConf Rank
SciTegic.value.IntegerValue
802

@<SCITEGIC>MOL_PROPERTY
Conf_Id
SciTegic.value.IntegerValue
144

@<SCITEGIC>MOL_PROPERTY
Delta U+W
SciTegic.value.DoubleValue
-3.291

@<SCITEGIC>MOL_PROPERTY
U+W
SciTegic.value.DoubleValue
3.132

@<SCITEGIC>MOL_PROPERTY
Grad RMS
SciTegic.value.DoubleValue
0.000000

@<SCITEGIC>MOL_PROPERTY
U
SciTegic.value.DoubleValue
5.411

@<SCITEGIC>MOL_PROPERTY
W
SciTegic.value.DoubleValue
-2.279

@<SCITEGIC>MOL_PROPERTY
W(PB)
SciTegic.value.DoubleValue
-4.300

@<SCITEGIC>MOL_PROPERTY
W(SA)
SciTegic.value.DoubleValue
2.021

@<SCITEGIC>MOL_PROPERTY
Valence
SciTegic.value.DoubleValue
11.909

@<SCITEGIC>MOL_PROPERTY
Coulomb
SciTegic.value.DoubleValue
-8.733

@<SCITEGIC>MOL_PROPERTY
VdW
SciTegic.value.DoubleValue
2.236

@<SCITEGIC>MOL_PROPERTY
VdW6
SciTegic.value.DoubleValue
-8.936

@<SCITEGIC>MOL_PROPERTY
VdW12
SciTegic.value.DoubleValue
11.172

@<SCITEGIC>MOL_PROPERTY
Bond
SciTegic.value.DoubleValue
0.223

@<SCITEGIC>MOL_PROPERTY
Angle
SciTegic.value.DoubleValue
2.457

@<SCITEGIC>MOL_PROPERTY
Pdih
SciTegic.value.DoubleValue
9.228

@<SCITEGIC>MOL_PROPERTY
Idih
SciTegic.value.DoubleValue
0.000

@<SCITEGIC>MOL_PROPERTY
Tether
SciTegic.value.DoubleValue
0.000

@<TRIPOS>MOLECULE
guest-5_confgen4.mol2 : confsearch ligand conformer 803
          22          22           1
SMALL
USER_CHARGES
 
@<TRIPOS>ATOM
       1    C1      19.113850   20.299274   21.325213 C.3        1 MOL1        -0.1685
       2    H1      18.543180   20.984611   20.683701 H          1 MOL1         0.0832
       3    H2      19.379854   19.441510   20.692626 H          1 MOL1         0.0832
       4    C2      18.197291   19.860826   22.491300 C.3        1 MOL1        -0.1685
       5    H3      18.209044   20.630659   23.274877 H          1 MOL1         0.0832
       6    H4      17.159422   19.823727   22.132900 H          1 MOL1         0.0832
       7    C3      18.536961   18.483715   23.111068 C.3        1 MOL1        -0.1685
       8    H5      18.069544   17.694558   22.506362 H          1 MOL1         0.0832
       9    H6      18.058711   18.425397   24.098435 H          1 MOL1         0.0832
      10    C4      20.041830   18.149802   23.259430 C.3        1 MOL1        -0.1761
      11    H7      20.134538   17.334701   23.989831 H          1 MOL1         0.0832
      12    H8      20.416095   17.743448   22.310907 H          1 MOL1         0.0832
      13    C5      20.932420   19.335342   23.694098 C.3        1 MOL1         0.1218
      14    H9      20.369965   19.987202   24.377613 H          1 MOL1         0.0789
      15    C6      21.445434   20.162468   22.493408 C.3        1 MOL1        -0.1761
      16    H10     22.258276   20.815677   22.837993 H          1 MOL1         0.0832
      17    H11     21.891574   19.490003   21.749207 H          1 MOL1         0.0832
      18    C7      20.381059   21.048108   21.803145 C.3        1 MOL1        -0.1685
      19    H12     20.089878   21.862255   22.480864 H          1 MOL1         0.0832
      20    H13     20.848874   21.533743   20.935910 H          1 MOL1         0.0832
      21    O1      22.063176   18.816286   24.381255 O.3        1 MOL1        -0.5509
      22    H14     22.535097   18.242314   23.743284 H          1 MOL1         0.3779
@<TRIPOS>BOND
    1     1     2    1
    2     1     3    1
    3     1     4    1
    4     4     5    1
    5     4     6    1
    6     4     7    1
    7     7     8    1
    8     7     9    1
    9     7    10    1
   10    10    11    1
   11    10    12    1
   12    10    13    1
   13    13    14    1
   14    13    15    1
   15    15    16    1
   16    15    17    1
   17     1    18    1
   18    15    18    1
   19    18    19    1
   20    18    20    1
   21    13    21    1
   22    21    22    1
@<TRIPOS>SUBSTRUCTURE
       1 MOL1            1 RESIDUE      1      MOL     
@<SCITEGIC>MOL_PROPERTY
VConf Rank
SciTegic.value.IntegerValue
803

@<SCITEGIC>MOL_PROPERTY
Conf_Id
SciTegic.value.IntegerValue
76

@<SCITEGIC>MOL_PROPERTY
Delta U+W
SciTegic.value.DoubleValue
-3.175

@<SCITEGIC>MOL_PROPERTY
U+W
SciTegic.value.DoubleValue
3.248

@<SCITEGIC>MOL_PROPERTY
Grad RMS
SciTegic.value.DoubleValue
0.000000

@<SCITEGIC>MOL_PROPERTY
U
SciTegic.value.DoubleValue
5.336

@<SCITEGIC>MOL_PROPERTY
W
SciTegic.value.DoubleValue
-2.088

@<SCITEGIC>MOL_PROPERTY
W(PB)
SciTegic.value.DoubleValue
-4.098

@<SCITEGIC>MOL_PROPERTY
W(SA)
SciTegic.value.DoubleValue
2.010

@<SCITEGIC>MOL_PROPERTY
Valence
SciTegic.value.DoubleValue
12.390

@<SCITEGIC>MOL_PROPERTY
Coulomb
SciTegic.value.DoubleValue
-9.270

@<SCITEGIC>MOL_PROPERTY
VdW
SciTegic.value.DoubleValue
2.216

@<SCITEGIC>MOL_PROPERTY
VdW6
SciTegic.value.DoubleValue
-8.967

@<SCITEGIC>MOL_PROPERTY
VdW12
SciTegic.value.DoubleValue
11.183

@<SCITEGIC>MOL_PROPERTY
Bond
SciTegic.value.DoubleValue
0.218

@<SCITEGIC>MOL_PROPERTY
Angle
SciTegic.value.DoubleValue
2.426

@<SCITEGIC>MOL_PROPERTY
Pdih
SciTegic.value.DoubleValue
9.745

@<SCITEGIC>MOL_PROPERTY
Idih
SciTegic.value.DoubleValue
0.000

@<SCITEGIC>MOL_PROPERTY
Tether
SciTegic.value.DoubleValue
0.000

@<TRIPOS>MOLECULE
guest-5_confgen4.mol2 : confsearch ligand conformer 804
          22          22           1
SMALL
USER_CHARGES
 
@<TRIPOS>ATOM
       1    C1      18.584361   18.450581   22.390539 C.3        1 MOL1        -0.1685
       2    H1      18.566390   17.494226   21.850314 H          1 MOL1         0.0832
       3    H2      17.570696   18.585264   22.791986 H          1 MOL1         0.0832
       4    C2      18.873403   19.577480   21.370133 C.3        1 MOL1        -0.1685
       5    H3      19.582266   19.214226   20.613801 H          1 MOL1         0.0832
       6    H4      17.943617   19.787581   20.824111 H          1 MOL1         0.0832
       7    C3      19.404619   20.894365   21.982643 C.3        1 MOL1        -0.1685
       8    H5      18.920897   21.103391   22.946571 H          1 MOL1         0.0832
       9    H6      19.122254   21.719357   21.314849 H          1 MOL1         0.0832
      10    C4      20.947802   20.910031   22.125545 C.3        1 MOL1        -0.1761
      11    H7      21.401758   20.627869   21.166993 H          1 MOL1         0.0832
      12    H8      21.271755   21.942262   22.312542 H          1 MOL1         0.0832
      13    C5      21.539782   20.016026   23.238833 C.3        1 MOL1         0.1218
      14    H9      22.628754   20.000215   23.087221 H          1 MOL1         0.0789
      15    C6      21.056789   18.543918   23.228673 C.3        1 MOL1        -0.1761
      16    H10     21.276798   18.086896   22.255222 H          1 MOL1         0.0832
      17    H11     21.662754   17.991660   23.958470 H          1 MOL1         0.0832
      18    C7      19.561469   18.338455   23.585073 C.3        1 MOL1        -0.1685
      19    H12     19.437656   17.341594   24.029328 H          1 MOL1         0.0832
      20    H13     19.260477   19.045458   24.369287 H          1 MOL1         0.0832
      21    O1      21.277101   20.608771   24.506774 O.3        1 MOL1        -0.5509
      22    H14     21.620821   19.988183   25.181319 H          1 MOL1         0.3779
@<TRIPOS>BOND
    1     1     2    1
    2     1     3    1
    3     1     4    1
    4     4     5    1
    5     4     6    1
    6     4     7    1
    7     7     8    1
    8     7     9    1
    9     7    10    1
   10    10    11    1
   11    10    12    1
   12    10    13    1
   13    13    14    1
   14    13    15    1
   15    15    16    1
   16    15    17    1
   17     1    18    1
   18    15    18    1
   19    18    19    1
   20    18    20    1
   21    13    21    1
   22    21    22    1
@<TRIPOS>SUBSTRUCTURE
       1 MOL1            1 RESIDUE      1      MOL     
@<SCITEGIC>MOL_PROPERTY
VConf Rank
SciTegic.value.IntegerValue
804

@<SCITEGIC>MOL_PROPERTY
Conf_Id
SciTegic.value.IntegerValue
95

@<SCITEGIC>MOL_PROPERTY
Delta U+W
SciTegic.value.DoubleValue
-2.289

@<SCITEGIC>MOL_PROPERTY
U+W
SciTegic.value.DoubleValue
4.134

@<SCITEGIC>MOL_PROPERTY
Grad RMS
SciTegic.value.DoubleValue
0.000000

@<SCITEGIC>MOL_PROPERTY
U
SciTegic.value.DoubleValue
6.373

@<SCITEGIC>MOL_PROPERTY
W
SciTegic.value.DoubleValue
-2.240

@<SCITEGIC>MOL_PROPERTY
W(PB)
SciTegic.value.DoubleValue
-4.254

@<SCITEGIC>MOL_PROPERTY
W(SA)
SciTegic.value.DoubleValue
2.015

@<SCITEGIC>MOL_PROPERTY
Valence
SciTegic.value.DoubleValue
12.093

@<SCITEGIC>MOL_PROPERTY
Coulomb
SciTegic.value.DoubleValue
-8.058

@<SCITEGIC>MOL_PROPERTY
VdW
SciTegic.value.DoubleValue
2.339

@<SCITEGIC>MOL_PROPERTY
VdW6
SciTegic.value.DoubleValue
-9.683

@<SCITEGIC>MOL_PROPERTY
VdW12
SciTegic.value.DoubleValue
12.022

@<SCITEGIC>MOL_PROPERTY
Bond
SciTegic.value.DoubleValue
0.268

@<SCITEGIC>MOL_PROPERTY
Angle
SciTegic.value.DoubleValue
3.005

@<SCITEGIC>MOL_PROPERTY
Pdih
SciTegic.value.DoubleValue
8.820

@<SCITEGIC>MOL_PROPERTY
Idih
SciTegic.value.DoubleValue
0.000

@<SCITEGIC>MOL_PROPERTY
Tether
SciTegic.value.DoubleValue
0.000

@<TRIPOS>MOLECULE
guest-5_confgen4.mol2 : confsearch ligand conformer 805
          22          22           1
SMALL
USER_CHARGES
 
@<TRIPOS>ATOM
       1    C1      21.947348   19.448882   22.744493 C.3        1 MOL1        -0.1685
       2    H1      22.601889   19.376051   23.623713 H          1 MOL1         0.0832
       3    H2      22.608792   19.357059   21.872226 H          1 MOL1         0.0832
       4    C2      21.301137   20.854830   22.737349 C.3        1 MOL1        -0.1685
       5    H3      21.091450   21.166394   23.769550 H          1 MOL1         0.0832
       6    H4      22.046408   21.568865   22.361151 H          1 MOL1         0.0832
       7    C3      20.013480   20.979979   21.890123 C.3        1 MOL1        -0.1685
       8    H5      20.086609   20.380215   20.972651 H          1 MOL1         0.0832
       9    H6      19.920491   22.024922   21.564741 H          1 MOL1         0.0832
      10    C4      18.735488   20.618439   22.688457 C.3        1 MOL1        -0.1761
      11    H7      18.736828   21.170383   23.637273 H          1 MOL1         0.0832
      12    H8      17.861126   20.988752   22.137693 H          1 MOL1         0.0832
      13    C5      18.521399   19.117416   22.989838 C.3        1 MOL1         0.1218
      14    H9      17.683777   19.052229   23.699233 H          1 MOL1         0.0789
      15    C6      19.728016   18.399346   23.644655 C.3        1 MOL1        -0.1761
      16    H10     20.002124   18.904357   24.579704 H          1 MOL1         0.0832
      17    H11     19.390194   17.395799   23.933788 H          1 MOL1         0.0832
      18    C7      20.975692   18.244643   22.736462 C.3        1 MOL1        -0.1685
      19    H12     21.536759   17.356407   23.056550 H          1 MOL1         0.0832
      20    H13     20.662880   18.033620   21.705328 H          1 MOL1         0.0832
      21    O1      18.142314   18.444800   21.792853 O.3        1 MOL1        -0.5509
      22    H14     17.392134   18.946428   21.413662 H          1 MOL1         0.3779
@<TRIPOS>BOND
    1     1     2    1
    2     1     3    1
    3     1     4    1
    4     4     5    1
    5     4     6    1
    6     4     7    1
    7     7     8    1
    8     7     9    1
    9     7    10    1
   10    10    11    1
   11    10    12    1
   12    10    13    1
   13    13    14    1
   14    13    15    1
   15    15    16    1
   16    15    17    1
   17     1    18    1
   18    15    18    1
   19    18    19    1
   20    18    20    1
   21    13    21    1
   22    21    22    1
@<TRIPOS>SUBSTRUCTURE
       1 MOL1            1 RESIDUE      1      MOL     
@<SCITEGIC>MOL_PROPERTY
VConf Rank
SciTegic.value.IntegerValue
805

@<SCITEGIC>MOL_PROPERTY
Conf_Id
SciTegic.value.IntegerValue
41

@<SCITEGIC>MOL_PROPERTY
Delta U+W
SciTegic.value.DoubleValue
-2.114

@<SCITEGIC>MOL_PROPERTY
U+W
SciTegic.value.DoubleValue
4.310

@<SCITEGIC>MOL_PROPERTY
Grad RMS
SciTegic.value.DoubleValue
0.000000

@<SCITEGIC>MOL_PROPERTY
U
SciTegic.value.DoubleValue
6.598

@<SCITEGIC>MOL_PROPERTY
W
SciTegic.value.DoubleValue
-2.289

@<SCITEGIC>MOL_PROPERTY
W(PB)
SciTegic.value.DoubleValue
-4.294

@<SCITEGIC>MOL_PROPERTY
W(SA)
SciTegic.value.DoubleValue
2.005

@<SCITEGIC>MOL_PROPERTY
Valence
SciTegic.value.DoubleValue
12.082

@<SCITEGIC>MOL_PROPERTY
Coulomb
SciTegic.value.DoubleValue
-7.801

@<SCITEGIC>MOL_PROPERTY
VdW
SciTegic.value.DoubleValue
2.317

@<SCITEGIC>MOL_PROPERTY
VdW6
SciTegic.value.DoubleValue
-9.658

@<SCITEGIC>MOL_PROPERTY
VdW12
SciTegic.value.DoubleValue
11.975

@<SCITEGIC>MOL_PROPERTY
Bond
SciTegic.value.DoubleValue
0.267

@<SCITEGIC>MOL_PROPERTY
Angle
SciTegic.value.DoubleValue
3.051

@<SCITEGIC>MOL_PROPERTY
Pdih
SciTegic.value.DoubleValue
8.764

@<SCITEGIC>MOL_PROPERTY
Idih
SciTegic.value.DoubleValue
0.000

@<SCITEGIC>MOL_PROPERTY
Tether
SciTegic.value.DoubleValue
0.000

@<TRIPOS>MOLECULE
guest-5_confgen4.mol2 : confsearch ligand conformer 806
          22          22           1
SMALL
USER_CHARGES
 
@<TRIPOS>ATOM
       1    C1      19.493481   20.101626   24.167078 C.3        1 MOL1        -0.1685
       2    H1      19.065557   20.693170   24.987753 H          1 MOL1         0.0832
       3    H2      19.392594   19.047973   24.461720 H          1 MOL1         0.0832
       4    C2      20.982536   20.490304   24.029123 C.3        1 MOL1        -0.1685
       5    H3      21.060436   21.526944   23.674310 H          1 MOL1         0.0832
       6    H4      21.442110   20.478163   25.026722 H          1 MOL1         0.0832
       7    C3      21.806647   19.566375   23.105858 C.3        1 MOL1        -0.1685
       8    H5      21.905232   18.577217   23.572481 H          1 MOL1         0.0832
       9    H6      22.827345   19.967760   23.049355 H          1 MOL1         0.0832
      10    C4      21.258999   19.419427   21.660288 C.3        1 MOL1        -0.1761
      11    H7      21.086728   20.409847   21.220233 H          1 MOL1         0.0832
      12    H8      22.047333   18.957965   21.051875 H          1 MOL1         0.0832
      13    C5      19.988667   18.544796   21.501203 C.3        1 MOL1         0.1218
      14    H9      19.919964   18.279343   20.436265 H          1 MOL1         0.0789
      15    C6      18.645280   19.230561   21.862006 C.3        1 MOL1        -0.1761
      16    H10     18.204655   19.620819   20.935394 H          1 MOL1         0.0832
      17    H11     17.939184   18.468967   22.218200 H          1 MOL1         0.0832
      18    C7      18.679853   20.391655   22.886488 C.3        1 MOL1        -0.1685
      19    H12     19.057787   21.303350   22.404417 H          1 MOL1         0.0832
      20    H13     17.643661   20.617910   23.172483 H          1 MOL1         0.0832
      21    O1      20.122155   17.333195   22.239528 O.3        1 MOL1        -0.5509
      22    H14     19.313684   16.808263   22.070026 H          1 MOL1         0.3779
@<TRIPOS>BOND
    1     1     2    1
    2     1     3    1
    3     1     4    1
    4     4     5    1
    5     4     6    1
    6     4     7    1
    7     7     8    1
    8     7     9    1
    9     7    10    1
   10    10    11    1
   11    10    12    1
   12    10    13    1
   13    13    14    1
   14    13    15    1
   15    15    16    1
   16    15    17    1
   17     1    18    1
   18    15    18    1
   19    18    19    1
   20    18    20    1
   21    13    21    1
   22    21    22    1
@<TRIPOS>SUBSTRUCTURE
       1 MOL1            1 RESIDUE      1      MOL     
@<SCITEGIC>MOL_PROPERTY
VConf Rank
SciTegic.value.IntegerValue
806

@<SCITEGIC>MOL_PROPERTY
Conf_Id
SciTegic.value.IntegerValue
104

@<SCITEGIC>MOL_PROPERTY
Delta U+W
SciTegic.value.DoubleValue
-1.172

@<SCITEGIC>MOL_PROPERTY
U+W
SciTegic.value.DoubleValue
5.252

@<SCITEGIC>MOL_PROPERTY
Grad RMS
SciTegic.value.DoubleValue
0.000000

@<SCITEGIC>MOL_PROPERTY
U
SciTegic.value.DoubleValue
7.482

@<SCITEGIC>MOL_PROPERTY
W
SciTegic.value.DoubleValue
-2.230

@<SCITEGIC>MOL_PROPERTY
W(PB)
SciTegic.value.DoubleValue
-4.220

@<SCITEGIC>MOL_PROPERTY
W(SA)
SciTegic.value.DoubleValue
1.990

@<SCITEGIC>MOL_PROPERTY
Valence
SciTegic.value.DoubleValue
12.309

@<SCITEGIC>MOL_PROPERTY
Coulomb
SciTegic.value.DoubleValue
-7.084

@<SCITEGIC>MOL_PROPERTY
VdW
SciTegic.value.DoubleValue
2.258

@<SCITEGIC>MOL_PROPERTY
VdW6
SciTegic.value.DoubleValue
-9.770

@<SCITEGIC>MOL_PROPERTY
VdW12
SciTegic.value.DoubleValue
12.028

@<SCITEGIC>MOL_PROPERTY
Bond
SciTegic.value.DoubleValue
0.284

@<SCITEGIC>MOL_PROPERTY
Angle
SciTegic.value.DoubleValue
3.491

@<SCITEGIC>MOL_PROPERTY
Pdih
SciTegic.value.DoubleValue
8.535

@<SCITEGIC>MOL_PROPERTY
Idih
SciTegic.value.DoubleValue
0.000

@<SCITEGIC>MOL_PROPERTY
Tether
SciTegic.value.DoubleValue
0.000

@<TRIPOS>MOLECULE
guest-5_confgen4.mol2 : confsearch ligand conformer 807
          22          22           1
SMALL
USER_CHARGES
 
@<TRIPOS>ATOM
       1    C1      21.193091   20.326196   21.728143 C.3        1 MOL1        -0.1685
       2    H1      21.165977   21.254971   22.313912 H          1 MOL1         0.0832
       3    H2      21.909361   20.503159   20.914152 H          1 MOL1         0.0832
       4    C2      19.815339   20.035087   21.090539 C.3        1 MOL1        -0.1685
       5    H3      19.704687   20.661213   20.194453 H          1 MOL1         0.0832
       6    H4      19.797534   19.002132   20.719025 H          1 MOL1         0.0832
       7    C3      18.586924   20.291467   21.999901 C.3        1 MOL1        -0.1685
       8    H5      17.758418   19.659334   21.651618 H          1 MOL1         0.0832
       9    H6      18.249411   21.325327   21.844505 H          1 MOL1         0.0832
      10    C4      18.777080   20.086207   23.527289 C.3        1 MOL1        -0.1761
      11    H7      19.286250   20.963629   23.946612 H          1 MOL1         0.0832
      12    H8      17.783765   20.079526   23.994496 H          1 MOL1         0.0832
      13    C5      19.528934   18.813078   23.978775 C.3        1 MOL1         0.1218
      14    H9      19.239771   18.614820   25.020869 H          1 MOL1         0.0789
      15    C6      21.064497   18.986762   23.966589 C.3        1 MOL1        -0.1761
      16    H10     21.325462   19.851472   24.590477 H          1 MOL1         0.0832
      17    H11     21.511165   18.116870   24.465607 H          1 MOL1         0.0832
      18    C7      21.730849   19.150415   22.578071 C.3        1 MOL1        -0.1685
      19    H12     22.806825   19.303976   22.737462 H          1 MOL1         0.0832
      20    H13     21.647433   18.212761   22.012099 H          1 MOL1         0.0832
      21    O1      19.155695   17.702938   23.177244 O.3        1 MOL1        -0.5509
      22    H14     19.365240   17.986182   22.265022 H          1 MOL1         0.3779
@<TRIPOS>BOND
    1     1     2    1
    2     1     3    1
    3     1     4    1
    4     4     5    1
    5     4     6    1
    6     4     7    1
    7     7     8    1
    8     7     9    1
    9     7    10    1
   10    10    11    1
   11    10    12    1
   12    10    13    1
   13    13    14    1
   14    13    15    1
   15    15    16    1
   16    15    17    1
   17     1    18    1
   18    15    18    1
   19    18    19    1
   20    18    20    1
   21    13    21    1
   22    21    22    1
@<TRIPOS>SUBSTRUCTURE
       1 MOL1            1 RESIDUE      1      MOL     
@<SCITEGIC>MOL_PROPERTY
VConf Rank
SciTegic.value.IntegerValue
807

@<SCITEGIC>MOL_PROPERTY
Conf_Id
SciTegic.value.IntegerValue
99

@<SCITEGIC>MOL_PROPERTY
Delta U+W
SciTegic.value.DoubleValue
-3.852

@<SCITEGIC>MOL_PROPERTY
U+W
SciTegic.value.DoubleValue
2.572

@<SCITEGIC>MOL_PROPERTY
Grad RMS
SciTegic.value.DoubleValue
0.000000

@<SCITEGIC>MOL_PROPERTY
U
SciTegic.value.DoubleValue
3.922

@<SCITEGIC>MOL_PROPERTY
W
SciTegic.value.DoubleValue
-1.350

@<SCITEGIC>MOL_PROPERTY
W(PB)
SciTegic.value.DoubleValue
-3.345

@<SCITEGIC>MOL_PROPERTY
W(SA)
SciTegic.value.DoubleValue
1.995

@<SCITEGIC>MOL_PROPERTY
Valence
SciTegic.value.DoubleValue
12.571

@<SCITEGIC>MOL_PROPERTY
Coulomb
SciTegic.value.DoubleValue
-10.581

@<SCITEGIC>MOL_PROPERTY
VdW
SciTegic.value.DoubleValue
1.932

@<SCITEGIC>MOL_PROPERTY
VdW6
SciTegic.value.DoubleValue
-10.483

@<SCITEGIC>MOL_PROPERTY
VdW12
SciTegic.value.DoubleValue
12.415

@<SCITEGIC>MOL_PROPERTY
Bond
SciTegic.value.DoubleValue
0.268

@<SCITEGIC>MOL_PROPERTY
Angle
SciTegic.value.DoubleValue
3.728

@<SCITEGIC>MOL_PROPERTY
Pdih
SciTegic.value.DoubleValue
8.575

@<SCITEGIC>MOL_PROPERTY
Idih
SciTegic.value.DoubleValue
0.000

@<SCITEGIC>MOL_PROPERTY
Tether
SciTegic.value.DoubleValue
0.000

@<TRIPOS>MOLECULE
guest-5_confgen4.mol2 : confsearch ligand conformer 808
          22          22           1
SMALL
USER_CHARGES
 
@<TRIPOS>ATOM
       1    C1      19.066013   19.589365   21.349608 C.3        1 MOL1        -0.1685
       2    H1      18.862622   19.782134   20.287175 H          1 MOL1         0.0832
       3    H2      18.133901   19.162528   21.743348 H          1 MOL1         0.0832
       4    C2      19.361695   20.955794   22.034659 C.3        1 MOL1        -0.1685
       5    H3      19.286123   21.740012   21.268772 H          1 MOL1         0.0832
       6    H4      18.573399   21.193121   22.761515 H          1 MOL1         0.0832
       7    C3      20.749509   21.089510   22.712039 C.3        1 MOL1        -0.1685
       8    H5      20.904563   22.143753   22.978979 H          1 MOL1         0.0832
       9    H6      21.539872   20.870602   21.983359 H          1 MOL1         0.0832
      10    C4      20.966997   20.237858   23.993529 C.3        1 MOL1        -0.1761
      11    H7      22.047033   20.107847   24.139687 H          1 MOL1         0.0832
      12    H8      20.625227   20.820608   24.859319 H          1 MOL1         0.0832
      13    C5      20.290986   18.846780   24.071422 C.3        1 MOL1         0.1218
      14    H9      20.739709   18.321056   24.926428 H          1 MOL1         0.0789
      15    C6      20.467119   17.929282   22.836384 C.3        1 MOL1        -0.1761
      16    H10     21.487997   17.526220   22.845893 H          1 MOL1         0.0832
      17    H11     19.810676   17.059722   22.974029 H          1 MOL1         0.0832
      18    C7      20.195828   18.531125   21.429619 C.3        1 MOL1        -0.1685
      19    H12     21.124036   18.948706   21.020200 H          1 MOL1         0.0832
      20    H13     19.943636   17.703293   20.752996 H          1 MOL1         0.0832
      21    O1      18.909556   19.003943   24.354604 O.3        1 MOL1        -0.5509
      22    H14     18.559372   19.472641   23.570623 H          1 MOL1         0.3779
@<TRIPOS>BOND
    1     1     2    1
    2     1     3    1
    3     1     4    1
    4     4     5    1
    5     4     6    1
    6     4     7    1
    7     7     8    1
    8     7     9    1
    9     7    10    1
   10    10    11    1
   11    10    12    1
   12    10    13    1
   13    13    14    1
   14    13    15    1
   15    15    16    1
   16    15    17    1
   17     1    18    1
   18    15    18    1
   19    18    19    1
   20    18    20    1
   21    13    21    1
   22    21    22    1
@<TRIPOS>SUBSTRUCTURE
       1 MOL1            1 RESIDUE      1      MOL     
@<SCITEGIC>MOL_PROPERTY
VConf Rank
SciTegic.value.IntegerValue
808

@<SCITEGIC>MOL_PROPERTY
Conf_Id
SciTegic.value.IntegerValue
98

@<SCITEGIC>MOL_PROPERTY
Delta U+W
SciTegic.value.DoubleValue
0.930

@<SCITEGIC>MOL_PROPERTY
U+W
SciTegic.value.DoubleValue
7.353

@<SCITEGIC>MOL_PROPERTY
Grad RMS
SciTegic.value.DoubleValue
0.000000

@<SCITEGIC>MOL_PROPERTY
U
SciTegic.value.DoubleValue
8.455

@<SCITEGIC>MOL_PROPERTY
W
SciTegic.value.DoubleValue
-1.102

@<SCITEGIC>MOL_PROPERTY
W(PB)
SciTegic.value.DoubleValue
-3.101

@<SCITEGIC>MOL_PROPERTY
W(SA)
SciTegic.value.DoubleValue
2.000

@<SCITEGIC>MOL_PROPERTY
Valence
SciTegic.value.DoubleValue
15.601

@<SCITEGIC>MOL_PROPERTY
Coulomb
SciTegic.value.DoubleValue
-10.573

@<SCITEGIC>MOL_PROPERTY
VdW
SciTegic.value.DoubleValue
3.427

@<SCITEGIC>MOL_PROPERTY
VdW6
SciTegic.value.DoubleValue
-11.360

@<SCITEGIC>MOL_PROPERTY
VdW12
SciTegic.value.DoubleValue
14.787

@<SCITEGIC>MOL_PROPERTY
Bond
SciTegic.value.DoubleValue
0.471

@<SCITEGIC>MOL_PROPERTY
Angle
SciTegic.value.DoubleValue
5.445

@<SCITEGIC>MOL_PROPERTY
Pdih
SciTegic.value.DoubleValue
9.685

@<SCITEGIC>MOL_PROPERTY
Idih
SciTegic.value.DoubleValue
0.000

@<SCITEGIC>MOL_PROPERTY
Tether
SciTegic.value.DoubleValue
0.000

@<TRIPOS>MOLECULE
guest-5_confgen4.mol2 : confsearch ligand conformer 809
          22          22           1
SMALL
USER_CHARGES
 
@<TRIPOS>ATOM
       1    C1      19.754710   19.460104   20.957799 C.3        1 MOL1        -0.1685
       2    H1      19.251755   18.499695   21.129352 H          1 MOL1         0.0832
       3    H2      19.653369   19.646505   19.879978 H          1 MOL1         0.0832
       4    C2      21.261573   19.330228   21.296406 C.3        1 MOL1        -0.1685
       5    H3      21.678771   18.544553   20.651785 H          1 MOL1         0.0832
       6    H4      21.782970   20.254833   21.013786 H          1 MOL1         0.0832
       7    C3      21.606334   18.979804   22.770512 C.3        1 MOL1        -0.1685
       8    H5      21.955863   19.876422   23.298641 H          1 MOL1         0.0832
       9    H6      22.468465   18.299099   22.768076 H          1 MOL1         0.0832
      10    C4      20.455158   18.321013   23.575804 C.3        1 MOL1        -0.1761
      11    H7      20.067172   17.463060   23.012768 H          1 MOL1         0.0832
      12    H8      20.878904   17.888200   24.492047 H          1 MOL1         0.0832
      13    C5      19.272180   19.257027   23.960915 C.3        1 MOL1         0.1218
      14    H9      18.334699   18.728752   23.734814 H          1 MOL1         0.0789
      15    C6      19.236391   20.631584   23.247072 C.3        1 MOL1        -0.1761
      16    H10     18.436747   21.240591   23.688361 H          1 MOL1         0.0832
      17    H11     20.162024   21.180808   23.457180 H          1 MOL1         0.0832
      18    C7      19.003275   20.579208   21.716477 C.3        1 MOL1        -0.1685
      19    H12     17.928249   20.459610   21.524568 H          1 MOL1         0.0832
      20    H13     19.279236   21.552615   21.288695 H          1 MOL1         0.0832
      21    O1      19.331218   19.505137   25.360962 O.3        1 MOL1        -0.5509
      22    H14     18.546191   20.046954   25.585341 H          1 MOL1         0.3779
@<TRIPOS>BOND
    1     1     2    1
    2     1     3    1
    3     1     4    1
    4     4     5    1
    5     4     6    1
    6     4     7    1
    7     7     8    1
    8     7     9    1
    9     7    10    1
   10    10    11    1
   11    10    12    1
   12    10    13    1
   13    13    14    1
   14    13    15    1
   15    15    16    1
   16    15    17    1
   17     1    18    1
   18    15    18    1
   19    18    19    1
   20    18    20    1
   21    13    21    1
   22    21    22    1
@<TRIPOS>SUBSTRUCTURE
       1 MOL1            1 RESIDUE      1      MOL     
@<SCITEGIC>MOL_PROPERTY
VConf Rank
SciTegic.value.IntegerValue
809

@<SCITEGIC>MOL_PROPERTY
Conf_Id
SciTegic.value.IntegerValue
141

@<SCITEGIC>MOL_PROPERTY
Delta U+W
SciTegic.value.DoubleValue
0.000

@<SCITEGIC>MOL_PROPERTY
U+W
SciTegic.value.DoubleValue
6.423

@<SCITEGIC>MOL_PROPERTY
Grad RMS
SciTegic.value.DoubleValue
0.000000

@<SCITEGIC>MOL_PROPERTY
U
SciTegic.value.DoubleValue
8.781

@<SCITEGIC>MOL_PROPERTY
W
SciTegic.value.DoubleValue
-2.358

@<SCITEGIC>MOL_PROPERTY
W(PB)
SciTegic.value.DoubleValue
-4.373

@<SCITEGIC>MOL_PROPERTY
W(SA)
SciTegic.value.DoubleValue
2.015

@<SCITEGIC>MOL_PROPERTY
Valence
SciTegic.value.DoubleValue
13.328

@<SCITEGIC>MOL_PROPERTY
Coulomb
SciTegic.value.DoubleValue
-8.387

@<SCITEGIC>MOL_PROPERTY
VdW
SciTegic.value.DoubleValue
3.840

@<SCITEGIC>MOL_PROPERTY
VdW6
SciTegic.value.DoubleValue
-9.744

@<SCITEGIC>MOL_PROPERTY
VdW12
SciTegic.value.DoubleValue
13.584

@<SCITEGIC>MOL_PROPERTY
Bond
SciTegic.value.DoubleValue
0.436

@<SCITEGIC>MOL_PROPERTY
Angle
SciTegic.value.DoubleValue
3.478

@<SCITEGIC>MOL_PROPERTY
Pdih
SciTegic.value.DoubleValue
9.415

@<SCITEGIC>MOL_PROPERTY
Idih
SciTegic.value.DoubleValue
0.000

@<SCITEGIC>MOL_PROPERTY
Tether
SciTegic.value.DoubleValue
0.000

@<TRIPOS>MOLECULE
guest-5_confgen4.mol2 : confsearch ligand conformer 810
          22          22           1
SMALL
USER_CHARGES
 
@<TRIPOS>ATOM
       1    C1      18.491045   20.272651   23.283151 C.3        1 MOL1        -0.1685
       2    H1      18.233332   20.590944   22.263895 H          1 MOL1         0.0832
       3    H2      17.631649   20.542626   23.912004 H          1 MOL1         0.0832
       4    C2      19.721535   21.049092   23.811061 C.3        1 MOL1        -0.1685
       5    H3      19.434639   22.098764   23.961840 H          1 MOL1         0.0832
       6    H4      19.993382   20.668347   24.805048 H          1 MOL1         0.0832
       7    C3      20.965306   21.016298   22.893297 C.3        1 MOL1        -0.1685
       8    H5      21.783205   21.540527   23.406184 H          1 MOL1         0.0832
       9    H6      20.762207   21.596369   21.982678 H          1 MOL1         0.0832
      10    C4      21.453725   19.599587   22.503995 C.3        1 MOL1        -0.1761
      11    H7      22.452067   19.703302   22.058976 H          1 MOL1         0.0832
      12    H8      21.581024   18.974734   23.397500 H          1 MOL1         0.0832
      13    C5      20.520561   18.905523   21.486593 C.3        1 MOL1         0.1218
      14    H9      20.088126   19.677446   20.833924 H          1 MOL1         0.0789
      15    C6      19.362237   18.102826   22.121620 C.3        1 MOL1        -0.1761
      16    H10     18.607877   17.936626   21.341768 H          1 MOL1         0.0832
      17    H11     19.724464   17.106081   22.406926 H          1 MOL1         0.0832
      18    C7      18.671703   18.738262   23.354271 C.3        1 MOL1        -0.1685
      19    H12     17.685778   18.267982   23.470950 H          1 MOL1         0.0832
      20    H13     19.230823   18.478157   24.263358 H          1 MOL1         0.0832
      21    O1      21.291836   18.012724   20.692072 O.3        1 MOL1        -0.5509
      22    H14     21.972537   18.553639   20.239661 H          1 MOL1         0.3779
@<TRIPOS>BOND
    1     1     2    1
    2     1     3    1
    3     1     4    1
    4     4     5    1
    5     4     6    1
    6     4     7    1
    7     7     8    1
    8     7     9    1
    9     7    10    1
   10    10    11    1
   11    10    12    1
   12    10    13    1
   13    13    14    1
   14    13    15    1
   15    15    16    1
   16    15    17    1
   17     1    18    1
   18    15    18    1
   19    18    19    1
   20    18    20    1
   21    13    21    1
   22    21    22    1
@<TRIPOS>SUBSTRUCTURE
       1 MOL1            1 RESIDUE      1      MOL     
@<SCITEGIC>MOL_PROPERTY
VConf Rank
SciTegic.value.IntegerValue
810

@<SCITEGIC>MOL_PROPERTY
Conf_Id
SciTegic.value.IntegerValue
144

@<SCITEGIC>MOL_PROPERTY
Delta U+W
SciTegic.value.DoubleValue
-3.291

@<SCITEGIC>MOL_PROPERTY
U+W
SciTegic.value.DoubleValue
3.132

@<SCITEGIC>MOL_PROPERTY
Grad RMS
SciTegic.value.DoubleValue
0.000000

@<SCITEGIC>MOL_PROPERTY
U
SciTegic.value.DoubleValue
5.411

@<SCITEGIC>MOL_PROPERTY
W
SciTegic.value.DoubleValue
-2.279

@<SCITEGIC>MOL_PROPERTY
W(PB)
SciTegic.value.DoubleValue
-4.300

@<SCITEGIC>MOL_PROPERTY
W(SA)
SciTegic.value.DoubleValue
2.021

@<SCITEGIC>MOL_PROPERTY
Valence
SciTegic.value.DoubleValue
11.909

@<SCITEGIC>MOL_PROPERTY
Coulomb
SciTegic.value.DoubleValue
-8.733

@<SCITEGIC>MOL_PROPERTY
VdW
SciTegic.value.DoubleValue
2.236

@<SCITEGIC>MOL_PROPERTY
VdW6
SciTegic.value.DoubleValue
-8.936

@<SCITEGIC>MOL_PROPERTY
VdW12
SciTegic.value.DoubleValue
11.172

@<SCITEGIC>MOL_PROPERTY
Bond
SciTegic.value.DoubleValue
0.223

@<SCITEGIC>MOL_PROPERTY
Angle
SciTegic.value.DoubleValue
2.457

@<SCITEGIC>MOL_PROPERTY
Pdih
SciTegic.value.DoubleValue
9.228

@<SCITEGIC>MOL_PROPERTY
Idih
SciTegic.value.DoubleValue
0.000

@<SCITEGIC>MOL_PROPERTY
Tether
SciTegic.value.DoubleValue
0.000

@<TRIPOS>MOLECULE
guest-5_confgen4.mol2 : confsearch ligand conformer 811
          22          22           1
SMALL
USER_CHARGES
 
@<TRIPOS>ATOM
       1    C1      21.111514   18.372808   23.140592 C.3        1 MOL1        -0.1685
       2    H1      21.651022   17.566620   23.656231 H          1 MOL1         0.0832
       3    H2      21.758407   18.689272   22.311096 H          1 MOL1         0.0832
       4    C2      20.901488   19.527990   24.147329 C.3        1 MOL1        -0.1685
       5    H3      20.021845   19.314938   24.769914 H          1 MOL1         0.0832
       6    H4      21.752447   19.553291   24.841754 H          1 MOL1         0.0832
       7    C3      20.761354   20.933349   23.513886 C.3        1 MOL1        -0.1685
       8    H5      21.763551   21.341229   23.323759 H          1 MOL1         0.0832
       9    H6      20.304351   21.600125   24.257914 H          1 MOL1         0.0832
      10    C4      19.949769   21.015458   22.197555 C.3        1 MOL1        -0.1761
      11    H7      19.653476   22.062861   22.050493 H          1 MOL1         0.0832
      12    H8      20.606918   20.770694   21.353078 H          1 MOL1         0.0832
      13    C5      18.696344   20.113222   22.147670 C.3        1 MOL1         0.1218
      14    H9      18.249970   20.047274   23.150102 H          1 MOL1         0.0789
      15    C6      19.009179   18.692743   21.624838 C.3        1 MOL1        -0.1761
      16    H10     18.063323   18.193931   21.374488 H          1 MOL1         0.0832
      17    H11     19.572411   18.763996   20.685276 H          1 MOL1         0.0832
      18    C7      19.781344   17.784921   22.611415 C.3        1 MOL1        -0.1685
      19    H12     19.130566   17.533222   23.459979 H          1 MOL1         0.0832
      20    H13     19.995482   16.833273   22.106144 H          1 MOL1         0.0832
      21    O1      17.754201   20.705793   21.263681 O.3        1 MOL1        -0.5509
      22    H14     18.187111   20.748614   20.386233 H          1 MOL1         0.3779
@<TRIPOS>BOND
    1     1     2    1
    2     1     3    1
    3     1     4    1
    4     4     5    1
    5     4     6    1
    6     4     7    1
    7     7     8    1
    8     7     9    1
    9     7    10    1
   10    10    11    1
   11    10    12    1
   12    10    13    1
   13    13    14    1
   14    13    15    1
   15    15    16    1
   16    15    17    1
   17     1    18    1
   18    15    18    1
   19    18    19    1
   20    18    20    1
   21    13    21    1
   22    21    22    1
@<TRIPOS>SUBSTRUCTURE
       1 MOL1            1 RESIDUE      1      MOL     
@<SCITEGIC>MOL_PROPERTY
VConf Rank
SciTegic.value.IntegerValue
811

@<SCITEGIC>MOL_PROPERTY
Conf_Id
SciTegic.value.IntegerValue
76

@<SCITEGIC>MOL_PROPERTY
Delta U+W
SciTegic.value.DoubleValue
-3.175

@<SCITEGIC>MOL_PROPERTY
U+W
SciTegic.value.DoubleValue
3.248

@<SCITEGIC>MOL_PROPERTY
Grad RMS
SciTegic.value.DoubleValue
0.000000

@<SCITEGIC>MOL_PROPERTY
U
SciTegic.value.DoubleValue
5.336

@<SCITEGIC>MOL_PROPERTY
W
SciTegic.value.DoubleValue
-2.088

@<SCITEGIC>MOL_PROPERTY
W(PB)
SciTegic.value.DoubleValue
-4.098

@<SCITEGIC>MOL_PROPERTY
W(SA)
SciTegic.value.DoubleValue
2.010

@<SCITEGIC>MOL_PROPERTY
Valence
SciTegic.value.DoubleValue
12.390

@<SCITEGIC>MOL_PROPERTY
Coulomb
SciTegic.value.DoubleValue
-9.270

@<SCITEGIC>MOL_PROPERTY
VdW
SciTegic.value.DoubleValue
2.216

@<SCITEGIC>MOL_PROPERTY
VdW6
SciTegic.value.DoubleValue
-8.967

@<SCITEGIC>MOL_PROPERTY
VdW12
SciTegic.value.DoubleValue
11.183

@<SCITEGIC>MOL_PROPERTY
Bond
SciTegic.value.DoubleValue
0.218

@<SCITEGIC>MOL_PROPERTY
Angle
SciTegic.value.DoubleValue
2.426

@<SCITEGIC>MOL_PROPERTY
Pdih
SciTegic.value.DoubleValue
9.745

@<SCITEGIC>MOL_PROPERTY
Idih
SciTegic.value.DoubleValue
0.000

@<SCITEGIC>MOL_PROPERTY
Tether
SciTegic.value.DoubleValue
0.000

@<TRIPOS>MOLECULE
guest-5_confgen4.mol2 : confsearch ligand conformer 812
          22          22           1
SMALL
USER_CHARGES
 
@<TRIPOS>ATOM
       1    C1      18.908445   20.225699   24.000999 C.3        1 MOL1        -0.1685
       2    H1      17.854592   19.956776   24.155454 H          1 MOL1         0.0832
       3    H2      19.166576   20.904994   24.824856 H          1 MOL1         0.0832
       4    C2      19.020529   20.994967   22.662964 C.3        1 MOL1        -0.1685
       5    H3      18.317387   20.568436   21.934856 H          1 MOL1         0.0832
       6    H4      18.677721   22.024586   22.833700 H          1 MOL1         0.0832
       7    C3      20.438555   21.033405   22.047117 C.3        1 MOL1        -0.1685
       8    H5      21.204755   21.127179   22.828770 H          1 MOL1         0.0832
       9    H6      20.518651   21.939591   21.431729 H          1 MOL1         0.0832
      10    C4      20.729249   19.815518   21.133702 C.3        1 MOL1        -0.1761
      11    H7      19.911865   19.704228   20.409817 H          1 MOL1         0.0832
      12    H8      21.624650   20.031637   20.536238 H          1 MOL1         0.0832
      13    C5      20.948704   18.462673   21.848369 C.3        1 MOL1         0.1218
      14    H9      20.958055   17.689165   21.066898 H          1 MOL1         0.0789
      15    C6      19.849013   18.068899   22.866263 C.3        1 MOL1        -0.1761
      16    H10     18.870868   18.050068   22.368511 H          1 MOL1         0.0832
      17    H11     20.042016   17.034461   23.178475 H          1 MOL1         0.0832
      18    C7      19.780078   18.954541   24.137523 C.3        1 MOL1        -0.1685
      19    H12     19.375117   18.355416   24.964250 H          1 MOL1         0.0832
      20    H13     20.792211   19.239301   24.453654 H          1 MOL1         0.0832
      21    O1      22.223753   18.467782   22.482597 O.3        1 MOL1        -0.5509
      22    H14     22.299429   17.618487   22.963486 H          1 MOL1         0.3779
@<TRIPOS>BOND
    1     1     2    1
    2     1     3    1
    3     1     4    1
    4     4     5    1
    5     4     6    1
    6     4     7    1
    7     7     8    1
    8     7     9    1
    9     7    10    1
   10    10    11    1
   11    10    12    1
   12    10    13    1
   13    13    14    1
   14    13    15    1
   15    15    16    1
   16    15    17    1
   17     1    18    1
   18    15    18    1
   19    18    19    1
   20    18    20    1
   21    13    21    1
   22    21    22    1
@<TRIPOS>SUBSTRUCTURE
       1 MOL1            1 RESIDUE      1      MOL     
@<SCITEGIC>MOL_PROPERTY
VConf Rank
SciTegic.value.IntegerValue
812

@<SCITEGIC>MOL_PROPERTY
Conf_Id
SciTegic.value.IntegerValue
95

@<SCITEGIC>MOL_PROPERTY
Delta U+W
SciTegic.value.DoubleValue
-2.289

@<SCITEGIC>MOL_PROPERTY
U+W
SciTegic.value.DoubleValue
4.134

@<SCITEGIC>MOL_PROPERTY
Grad RMS
SciTegic.value.DoubleValue
0.000000

@<SCITEGIC>MOL_PROPERTY
U
SciTegic.value.DoubleValue
6.373

@<SCITEGIC>MOL_PROPERTY
W
SciTegic.value.DoubleValue
-2.240

@<SCITEGIC>MOL_PROPERTY
W(PB)
SciTegic.value.DoubleValue
-4.254

@<SCITEGIC>MOL_PROPERTY
W(SA)
SciTegic.value.DoubleValue
2.015

@<SCITEGIC>MOL_PROPERTY
Valence
SciTegic.value.DoubleValue
12.093

@<SCITEGIC>MOL_PROPERTY
Coulomb
SciTegic.value.DoubleValue
-8.058

@<SCITEGIC>MOL_PROPERTY
VdW
SciTegic.value.DoubleValue
2.339

@<SCITEGIC>MOL_PROPERTY
VdW6
SciTegic.value.DoubleValue
-9.683

@<SCITEGIC>MOL_PROPERTY
VdW12
SciTegic.value.DoubleValue
12.022

@<SCITEGIC>MOL_PROPERTY
Bond
SciTegic.value.DoubleValue
0.268

@<SCITEGIC>MOL_PROPERTY
Angle
SciTegic.value.DoubleValue
3.005

@<SCITEGIC>MOL_PROPERTY
Pdih
SciTegic.value.DoubleValue
8.820

@<SCITEGIC>MOL_PROPERTY
Idih
SciTegic.value.DoubleValue
0.000

@<SCITEGIC>MOL_PROPERTY
Tether
SciTegic.value.DoubleValue
0.000

@<TRIPOS>MOLECULE
guest-5_confgen4.mol2 : confsearch ligand conformer 813
          22          22           1
SMALL
USER_CHARGES
 
@<TRIPOS>ATOM
       1    C1      21.238847   20.951761   23.397491 C.3        1 MOL1        -0.1685
       2    H1      21.940485   20.856277   24.237337 H          1 MOL1         0.0832
       3    H2      21.387955   21.964301   22.998343 H          1 MOL1         0.0832
       4    C2      19.799467   20.839712   23.954231 C.3        1 MOL1        -0.1685
       5    H3      19.781022   20.112370   24.777099 H          1 MOL1         0.0832
       6    H4      19.535689   21.804134   24.409324 H          1 MOL1         0.0832
       7    C3      18.720769   20.464834   22.911450 C.3        1 MOL1        -0.1685
       8    H5      18.923656   20.946605   21.945245 H          1 MOL1         0.0832
       9    H6      17.759035   20.867464   23.256968 H          1 MOL1         0.0832
      10    C4      18.558564   18.932867   22.743889 C.3        1 MOL1        -0.1761
      11    H7      18.443557   18.473655   23.734240 H          1 MOL1         0.0832
      12    H8      17.614364   18.735128   22.220088 H          1 MOL1         0.0832
      13    C5      19.695284   18.205045   21.990311 C.3        1 MOL1         0.1218
      14    H9      19.517375   17.126770   22.111849 H          1 MOL1         0.0789
      15    C6      21.123405   18.492000   22.518004 C.3        1 MOL1        -0.1761
      16    H10     21.189638   18.229241   23.581516 H          1 MOL1         0.0832
      17    H11     21.805189   17.807472   21.997022 H          1 MOL1         0.0832
      18    C7      21.630713   19.940395   22.293882 C.3        1 MOL1        -0.1685
      19    H12     22.726742   19.923434   22.225686 H          1 MOL1         0.0832
      20    H13     21.285544   20.310124   21.319316 H          1 MOL1         0.0832
      21    O1      19.615163   18.514152   20.602174 O.3        1 MOL1        -0.5509
      22    H14     18.693873   18.332075   20.326025 H          1 MOL1         0.3779
@<TRIPOS>BOND
    1     1     2    1
    2     1     3    1
    3     1     4    1
    4     4     5    1
    5     4     6    1
    6     4     7    1
    7     7     8    1
    8     7     9    1
    9     7    10    1
   10    10    11    1
   11    10    12    1
   12    10    13    1
   13    13    14    1
   14    13    15    1
   15    15    16    1
   16    15    17    1
   17     1    18    1
   18    15    18    1
   19    18    19    1
   20    18    20    1
   21    13    21    1
   22    21    22    1
@<TRIPOS>SUBSTRUCTURE
       1 MOL1            1 RESIDUE      1      MOL     
@<SCITEGIC>MOL_PROPERTY
VConf Rank
SciTegic.value.IntegerValue
813

@<SCITEGIC>MOL_PROPERTY
Conf_Id
SciTegic.value.IntegerValue
41

@<SCITEGIC>MOL_PROPERTY
Delta U+W
SciTegic.value.DoubleValue
-2.114

@<SCITEGIC>MOL_PROPERTY
U+W
SciTegic.value.DoubleValue
4.310

@<SCITEGIC>MOL_PROPERTY
Grad RMS
SciTegic.value.DoubleValue
0.000000

@<SCITEGIC>MOL_PROPERTY
U
SciTegic.value.DoubleValue
6.598

@<SCITEGIC>MOL_PROPERTY
W
SciTegic.value.DoubleValue
-2.289

@<SCITEGIC>MOL_PROPERTY
W(PB)
SciTegic.value.DoubleValue
-4.294

@<SCITEGIC>MOL_PROPERTY
W(SA)
SciTegic.value.DoubleValue
2.005

@<SCITEGIC>MOL_PROPERTY
Valence
SciTegic.value.DoubleValue
12.082

@<SCITEGIC>MOL_PROPERTY
Coulomb
SciTegic.value.DoubleValue
-7.801

@<SCITEGIC>MOL_PROPERTY
VdW
SciTegic.value.DoubleValue
2.317

@<SCITEGIC>MOL_PROPERTY
VdW6
SciTegic.value.DoubleValue
-9.658

@<SCITEGIC>MOL_PROPERTY
VdW12
SciTegic.value.DoubleValue
11.975

@<SCITEGIC>MOL_PROPERTY
Bond
SciTegic.value.DoubleValue
0.267

@<SCITEGIC>MOL_PROPERTY
Angle
SciTegic.value.DoubleValue
3.051

@<SCITEGIC>MOL_PROPERTY
Pdih
SciTegic.value.DoubleValue
8.764

@<SCITEGIC>MOL_PROPERTY
Idih
SciTegic.value.DoubleValue
0.000

@<SCITEGIC>MOL_PROPERTY
Tether
SciTegic.value.DoubleValue
0.000

@<TRIPOS>MOLECULE
guest-5_confgen4.mol2 : confsearch ligand conformer 814
          22          22           1
SMALL
USER_CHARGES
 
@<TRIPOS>ATOM
       1    C1      21.407459   18.579941   22.381326 C.3        1 MOL1        -0.1685
       2    H1      22.118672   17.755548   22.236062 H          1 MOL1         0.0832
       3    H2      21.790052   19.424302   21.791536 H          1 MOL1         0.0832
       4    C2      21.387710   18.929080   23.886351 C.3        1 MOL1        -0.1685
       5    H3      20.944806   18.097328   24.450803 H          1 MOL1         0.0832
       6    H4      22.424056   19.014974   24.240143 H          1 MOL1         0.0832
       7    C3      20.647942   20.239450   24.234050 C.3        1 MOL1        -0.1685
       8    H5      21.215243   21.094288   23.842500 H          1 MOL1         0.0832
       9    H6      20.659101   20.354694   25.326167 H          1 MOL1         0.0832
      10    C4      19.174304   20.313600   23.750230 C.3        1 MOL1        -0.1761
      11    H7      18.625552   19.420784   24.075820 H          1 MOL1         0.0832
      12    H8      18.698033   21.158070   24.264642 H          1 MOL1         0.0832
      13    C5      18.969394   20.531457   22.228855 C.3        1 MOL1         0.1218
      14    H9      17.933569   20.876127   22.096394 H          1 MOL1         0.0789
      15    C6      19.121481   19.271045   21.338141 C.3        1 MOL1        -0.1761
      16    H10     18.120998   18.850829   21.172267 H          1 MOL1         0.0832
      17    H11     19.474236   19.575903   20.344110 H          1 MOL1         0.0832
      18    C7      20.027564   18.126476   21.855705 C.3        1 MOL1        -0.1685
      19    H12     19.501771   17.557552   22.634345 H          1 MOL1         0.0832
      20    H13     20.181612   17.420200   21.028589 H          1 MOL1         0.0832
      21    O1      19.830683   21.562108   21.752558 O.3        1 MOL1        -0.5509
      22    H14     19.629651   21.681877   20.802215 H          1 MOL1         0.3779
@<TRIPOS>BOND
    1     1     2    1
    2     1     3    1
    3     1     4    1
    4     4     5    1
    5     4     6    1
    6     4     7    1
    7     7     8    1
    8     7     9    1
    9     7    10    1
   10    10    11    1
   11    10    12    1
   12    10    13    1
   13    13    14    1
   14    13    15    1
   15    15    16    1
   16    15    17    1
   17     1    18    1
   18    15    18    1
   19    18    19    1
   20    18    20    1
   21    13    21    1
   22    21    22    1
@<TRIPOS>SUBSTRUCTURE
       1 MOL1            1 RESIDUE      1      MOL     
@<SCITEGIC>MOL_PROPERTY
VConf Rank
SciTegic.value.IntegerValue
814

@<SCITEGIC>MOL_PROPERTY
Conf_Id
SciTegic.value.IntegerValue
104

@<SCITEGIC>MOL_PROPERTY
Delta U+W
SciTegic.value.DoubleValue
-1.172

@<SCITEGIC>MOL_PROPERTY
U+W
SciTegic.value.DoubleValue
5.252

@<SCITEGIC>MOL_PROPERTY
Grad RMS
SciTegic.value.DoubleValue
0.000000

@<SCITEGIC>MOL_PROPERTY
U
SciTegic.value.DoubleValue
7.482

@<SCITEGIC>MOL_PROPERTY
W
SciTegic.value.DoubleValue
-2.230

@<SCITEGIC>MOL_PROPERTY
W(PB)
SciTegic.value.DoubleValue
-4.220

@<SCITEGIC>MOL_PROPERTY
W(SA)
SciTegic.value.DoubleValue
1.990

@<SCITEGIC>MOL_PROPERTY
Valence
SciTegic.value.DoubleValue
12.309

@<SCITEGIC>MOL_PROPERTY
Coulomb
SciTegic.value.DoubleValue
-7.084

@<SCITEGIC>MOL_PROPERTY
VdW
SciTegic.value.DoubleValue
2.258

@<SCITEGIC>MOL_PROPERTY
VdW6
SciTegic.value.DoubleValue
-9.770

@<SCITEGIC>MOL_PROPERTY
VdW12
SciTegic.value.DoubleValue
12.028

@<SCITEGIC>MOL_PROPERTY
Bond
SciTegic.value.DoubleValue
0.284

@<SCITEGIC>MOL_PROPERTY
Angle
SciTegic.value.DoubleValue
3.491

@<SCITEGIC>MOL_PROPERTY
Pdih
SciTegic.value.DoubleValue
8.535

@<SCITEGIC>MOL_PROPERTY
Idih
SciTegic.value.DoubleValue
0.000

@<SCITEGIC>MOL_PROPERTY
Tether
SciTegic.value.DoubleValue
0.000

@<TRIPOS>MOLECULE
guest-5_confgen4.mol2 : confsearch ligand conformer 815
          22          22           1
SMALL
USER_CHARGES
 
@<TRIPOS>ATOM
       1    C1      20.127103   20.194362   24.196611 C.3        1 MOL1        -0.1685
       2    H1      20.985022   19.568746   24.477791 H          1 MOL1         0.0832
       3    H2      19.867924   20.772733   25.093971 H          1 MOL1         0.0832
       4    C2      18.905413   19.322378   23.827015 C.3        1 MOL1        -0.1685
       5    H3      18.423643   18.983232   24.754445 H          1 MOL1         0.0832
       6    H4      18.152031   19.945153   23.327111 H          1 MOL1         0.0832
       7    C3      19.210224   18.069012   22.968040 C.3        1 MOL1        -0.1685
       8    H5      18.303309   17.802268   22.407981 H          1 MOL1         0.0832
       9    H6      19.395242   17.222033   23.642816 H          1 MOL1         0.0832
      10    C4      20.409303   18.154428   21.985127 C.3        1 MOL1        -0.1761
      11    H7      21.342918   18.013157   22.544913 H          1 MOL1         0.0832
      12    H8      20.350172   17.296261   21.303179 H          1 MOL1         0.0832
      13    C5      20.531149   19.438186   21.132426 C.3        1 MOL1         0.1218
      14    H9      21.144307   19.190332   20.254083 H          1 MOL1         0.0789
      15    C6      21.255380   20.584608   21.873691 C.3        1 MOL1        -0.1761
      16    H10     22.238812   20.224518   22.202716 H          1 MOL1         0.0832
      17    H11     21.460526   21.384182   21.149922 H          1 MOL1         0.0832
      18    C7      20.514809   21.200230   23.086686 C.3        1 MOL1        -0.1685
      19    H12     21.168978   21.964794   23.527386 H          1 MOL1         0.0832
      20    H13     19.621302   21.738943   22.743304 H          1 MOL1         0.0832
      21    O1      19.251775   19.869587   20.695086 O.3        1 MOL1        -0.5509
      22    H14     18.744367   19.988378   21.522559 H          1 MOL1         0.3779
@<TRIPOS>BOND
    1     1     2    1
    2     1     3    1
    3     1     4    1
    4     4     5    1
    5     4     6    1
    6     4     7    1
    7     7     8    1
    8     7     9    1
    9     7    10    1
   10    10    11    1
   11    10    12    1
   12    10    13    1
   13    13    14    1
   14    13    15    1
   15    15    16    1
   16    15    17    1
   17     1    18    1
   18    15    18    1
   19    18    19    1
   20    18    20    1
   21    13    21    1
   22    21    22    1
@<TRIPOS>SUBSTRUCTURE
       1 MOL1            1 RESIDUE      1      MOL     
@<SCITEGIC>MOL_PROPERTY
VConf Rank
SciTegic.value.IntegerValue
815

@<SCITEGIC>MOL_PROPERTY
Conf_Id
SciTegic.value.IntegerValue
99

@<SCITEGIC>MOL_PROPERTY
Delta U+W
SciTegic.value.DoubleValue
-3.852

@<SCITEGIC>MOL_PROPERTY
U+W
SciTegic.value.DoubleValue
2.572

@<SCITEGIC>MOL_PROPERTY
Grad RMS
SciTegic.value.DoubleValue
0.000000

@<SCITEGIC>MOL_PROPERTY
U
SciTegic.value.DoubleValue
3.922

@<SCITEGIC>MOL_PROPERTY
W
SciTegic.value.DoubleValue
-1.350

@<SCITEGIC>MOL_PROPERTY
W(PB)
SciTegic.value.DoubleValue
-3.345

@<SCITEGIC>MOL_PROPERTY
W(SA)
SciTegic.value.DoubleValue
1.995

@<SCITEGIC>MOL_PROPERTY
Valence
SciTegic.value.DoubleValue
12.571

@<SCITEGIC>MOL_PROPERTY
Coulomb
SciTegic.value.DoubleValue
-10.581

@<SCITEGIC>MOL_PROPERTY
VdW
SciTegic.value.DoubleValue
1.932

@<SCITEGIC>MOL_PROPERTY
VdW6
SciTegic.value.DoubleValue
-10.483

@<SCITEGIC>MOL_PROPERTY
VdW12
SciTegic.value.DoubleValue
12.415

@<SCITEGIC>MOL_PROPERTY
Bond
SciTegic.value.DoubleValue
0.268

@<SCITEGIC>MOL_PROPERTY
Angle
SciTegic.value.DoubleValue
3.728

@<SCITEGIC>MOL_PROPERTY
Pdih
SciTegic.value.DoubleValue
8.575

@<SCITEGIC>MOL_PROPERTY
Idih
SciTegic.value.DoubleValue
0.000

@<SCITEGIC>MOL_PROPERTY
Tether
SciTegic.value.DoubleValue
0.000

@<TRIPOS>MOLECULE
guest-5_confgen4.mol2 : confsearch ligand conformer 816
          22          22           1
SMALL
USER_CHARGES
 
@<TRIPOS>ATOM
       1    C1      20.630768   20.996609   23.383538 C.3        1 MOL1        -0.1685
       2    H1      21.432601   21.613499   23.812259 H          1 MOL1         0.0832
       3    H2      19.733433   21.628201   23.427554 H          1 MOL1         0.0832
       4    C2      20.451871   19.746255   24.293736 C.3        1 MOL1        -0.1685
       5    H3      21.176159   19.822035   25.116508 H          1 MOL1         0.0832
       6    H4      19.467517   19.769959   24.780090 H          1 MOL1         0.0832
       7    C3      20.658758   18.371765   23.607640 C.3        1 MOL1        -0.1685
       8    H5      20.697873   17.598165   24.386574 H          1 MOL1         0.0832
       9    H6      21.648815   18.338492   23.136208 H          1 MOL1         0.0832
      10    C4      19.572899   17.954308   22.577364 C.3        1 MOL1        -0.1761
      11    H7      20.009772   17.207080   21.902432 H          1 MOL1         0.0832
      12    H8      18.771135   17.428208   23.112518 H          1 MOL1         0.0832
      13    C5      18.912603   19.062259   21.720269 C.3        1 MOL1         0.1218
      14    H9      18.358161   18.556612   20.916721 H          1 MOL1         0.0789
      15    C6      19.874766   20.066864   21.039714 C.3        1 MOL1        -0.1761
      16    H10     20.347147   19.569410   20.182897 H          1 MOL1         0.0832
      17    H11     19.262956   20.870000   20.607674 H          1 MOL1         0.0832
      18    C7      20.993495   20.712757   21.903466 C.3        1 MOL1        -0.1685
      19    H12     21.900151   20.096896   21.855927 H          1 MOL1         0.0832
      20    H13     21.279021   21.661340   21.428714 H          1 MOL1         0.0832
      21    O1      17.963476   19.768237   22.503846 O.3        1 MOL1        -0.5509
      22    H14     18.502495   20.196952   23.198537 H          1 MOL1         0.3779
@<TRIPOS>BOND
    1     1     2    1
    2     1     3    1
    3     1     4    1
    4     4     5    1
    5     4     6    1
    6     4     7    1
    7     7     8    1
    8     7     9    1
    9     7    10    1
   10    10    11    1
   11    10    12    1
   12    10    13    1
   13    13    14    1
   14    13    15    1
   15    15    16    1
   16    15    17    1
   17     1    18    1
   18    15    18    1
   19    18    19    1
   20    18    20    1
   21    13    21    1
   22    21    22    1
@<TRIPOS>SUBSTRUCTURE
       1 MOL1            1 RESIDUE      1      MOL     
@<SCITEGIC>MOL_PROPERTY
VConf Rank
SciTegic.value.IntegerValue
816

@<SCITEGIC>MOL_PROPERTY
Conf_Id
SciTegic.value.IntegerValue
98

@<SCITEGIC>MOL_PROPERTY
Delta U+W
SciTegic.value.DoubleValue
0.930

@<SCITEGIC>MOL_PROPERTY
U+W
SciTegic.value.DoubleValue
7.353

@<SCITEGIC>MOL_PROPERTY
Grad RMS
SciTegic.value.DoubleValue
0.000000

@<SCITEGIC>MOL_PROPERTY
U
SciTegic.value.DoubleValue
8.455

@<SCITEGIC>MOL_PROPERTY
W
SciTegic.value.DoubleValue
-1.102

@<SCITEGIC>MOL_PROPERTY
W(PB)
SciTegic.value.DoubleValue
-3.101

@<SCITEGIC>MOL_PROPERTY
W(SA)
SciTegic.value.DoubleValue
2.000

@<SCITEGIC>MOL_PROPERTY
Valence
SciTegic.value.DoubleValue
15.601

@<SCITEGIC>MOL_PROPERTY
Coulomb
SciTegic.value.DoubleValue
-10.573

@<SCITEGIC>MOL_PROPERTY
VdW
SciTegic.value.DoubleValue
3.427

@<SCITEGIC>MOL_PROPERTY
VdW6
SciTegic.value.DoubleValue
-11.360

@<SCITEGIC>MOL_PROPERTY
VdW12
SciTegic.value.DoubleValue
14.787

@<SCITEGIC>MOL_PROPERTY
Bond
SciTegic.value.DoubleValue
0.471

@<SCITEGIC>MOL_PROPERTY
Angle
SciTegic.value.DoubleValue
5.445

@<SCITEGIC>MOL_PROPERTY
Pdih
SciTegic.value.DoubleValue
9.685

@<SCITEGIC>MOL_PROPERTY
Idih
SciTegic.value.DoubleValue
0.000

@<SCITEGIC>MOL_PROPERTY
Tether
SciTegic.value.DoubleValue
0.000

@<TRIPOS>MOLECULE
guest-5_confgen4.mol2 : confsearch ligand conformer 817
          22          22           1
SMALL
USER_CHARGES
 
@<TRIPOS>ATOM
       1    C1      18.415096   19.477115   23.278856 C.3        1 MOL1        -0.1685
       2    H1      18.853524   19.623485   24.274415 H          1 MOL1         0.0832
       3    H2      17.329209   19.465290   23.444451 H          1 MOL1         0.0832
       4    C2      18.843205   18.098189   22.715433 C.3        1 MOL1        -0.1685
       5    H3      18.492784   17.330421   23.418720 H          1 MOL1         0.0832
       6    H4      18.311197   17.904335   21.774150 H          1 MOL1         0.0832
       7    C3      20.366999   17.890505   22.492807 C.3        1 MOL1        -0.1685
       8    H5      20.606121   17.973976   21.424692 H          1 MOL1         0.0832
       9    H6      20.613538   16.853285   22.757436 H          1 MOL1         0.0832
      10    C4      21.285354   18.842226   23.304325 C.3        1 MOL1        -0.1761
      11    H7      20.999407   18.802413   24.362755 H          1 MOL1         0.0832
      12    H8      22.308318   18.443478   23.273795 H          1 MOL1         0.0832
      13    C5      21.309038   20.327006   22.836630 C.3        1 MOL1         0.1218
      14    H9      21.216771   20.964450   23.727820 H          1 MOL1         0.0789
      15    C6      20.203538   20.738106   21.832078 C.3        1 MOL1        -0.1761
      16    H10     20.398770   21.762116   21.488064 H          1 MOL1         0.0832
      17    H11     20.273602   20.116512   20.931356 H          1 MOL1         0.0832
      18    C7      18.755822   20.689909   22.381262 C.3        1 MOL1        -0.1685
      19    H12     18.563339   21.605613   22.956806 H          1 MOL1         0.0832
      20    H13     18.060028   20.716203   21.531643 H          1 MOL1         0.0832
      21    O1      22.564456   20.584612   22.217968 O.3        1 MOL1        -0.5509
      22    H14     22.575140   21.536556   21.985876 H          1 MOL1         0.3779
@<TRIPOS>BOND
    1     1     2    1
    2     1     3    1
    3     1     4    1
    4     4     5    1
    5     4     6    1
    6     4     7    1
    7     7     8    1
    8     7     9    1
    9     7    10    1
   10    10    11    1
   11    10    12    1
   12    10    13    1
   13    13    14    1
   14    13    15    1
   15    15    16    1
   16    15    17    1
   17     1    18    1
   18    15    18    1
   19    18    19    1
   20    18    20    1
   21    13    21    1
   22    21    22    1
@<TRIPOS>SUBSTRUCTURE
       1 MOL1            1 RESIDUE      1      MOL     
@<SCITEGIC>MOL_PROPERTY
VConf Rank
SciTegic.value.IntegerValue
817

@<SCITEGIC>MOL_PROPERTY
Conf_Id
SciTegic.value.IntegerValue
141

@<SCITEGIC>MOL_PROPERTY
Delta U+W
SciTegic.value.DoubleValue
0.000

@<SCITEGIC>MOL_PROPERTY
U+W
SciTegic.value.DoubleValue
6.423

@<SCITEGIC>MOL_PROPERTY
Grad RMS
SciTegic.value.DoubleValue
0.000000

@<SCITEGIC>MOL_PROPERTY
U
SciTegic.value.DoubleValue
8.781

@<SCITEGIC>MOL_PROPERTY
W
SciTegic.value.DoubleValue
-2.358

@<SCITEGIC>MOL_PROPERTY
W(PB)
SciTegic.value.DoubleValue
-4.373

@<SCITEGIC>MOL_PROPERTY
W(SA)
SciTegic.value.DoubleValue
2.015

@<SCITEGIC>MOL_PROPERTY
Valence
SciTegic.value.DoubleValue
13.328

@<SCITEGIC>MOL_PROPERTY
Coulomb
SciTegic.value.DoubleValue
-8.387

@<SCITEGIC>MOL_PROPERTY
VdW
SciTegic.value.DoubleValue
3.840

@<SCITEGIC>MOL_PROPERTY
VdW6
SciTegic.value.DoubleValue
-9.744

@<SCITEGIC>MOL_PROPERTY
VdW12
SciTegic.value.DoubleValue
13.584

@<SCITEGIC>MOL_PROPERTY
Bond
SciTegic.value.DoubleValue
0.436

@<SCITEGIC>MOL_PROPERTY
Angle
SciTegic.value.DoubleValue
3.478

@<SCITEGIC>MOL_PROPERTY
Pdih
SciTegic.value.DoubleValue
9.415

@<SCITEGIC>MOL_PROPERTY
Idih
SciTegic.value.DoubleValue
0.000

@<SCITEGIC>MOL_PROPERTY
Tether
SciTegic.value.DoubleValue
0.000

@<TRIPOS>MOLECULE
guest-5_confgen4.mol2 : confsearch ligand conformer 818
          22          22           1
SMALL
USER_CHARGES
 
@<TRIPOS>ATOM
       1    C1      21.717171   19.521664   22.437994 C.3        1 MOL1        -0.1685
       2    H1      21.601135   20.067961   21.492106 H          1 MOL1         0.0832
       3    H2      22.797505   19.375451   22.573654 H          1 MOL1         0.0832
       4    C2      21.060927   18.122446   22.353218 C.3        1 MOL1        -0.1685
       5    H3      21.643154   17.504557   21.656023 H          1 MOL1         0.0832
       6    H4      21.138128   17.624291   23.329312 H          1 MOL1         0.0832
       7    C3      19.586031   18.112943   21.889620 C.3        1 MOL1        -0.1685
       8    H5      19.219091   17.078535   21.936319 H          1 MOL1         0.0832
       9    H6      19.534504   18.401547   20.830841 H          1 MOL1         0.0832
      10    C4      18.634809   19.012501   22.716150 C.3        1 MOL1        -0.1761
      11    H7      17.605244   18.744195   22.445059 H          1 MOL1         0.0832
      12    H8      18.733932   18.798733   23.788286 H          1 MOL1         0.0832
      13    C5      18.849608   20.517987   22.442284 C.3        1 MOL1         0.1218
      14    H9      19.154484   20.636781   21.392626 H          1 MOL1         0.0789
      15    C6      19.918369   21.187038   23.336385 C.3        1 MOL1        -0.1761
      16    H10     20.210955   22.128859   22.854496 H          1 MOL1         0.0832
      17    H11     19.464787   21.468536   24.296141 H          1 MOL1         0.0832
      18    C7      21.195396   20.360000   23.628366 C.3        1 MOL1        -0.1685
      19    H12     21.983946   21.054760   23.948248 H          1 MOL1         0.0832
      20    H13     21.017522   19.700930   24.489003 H          1 MOL1         0.0832
      21    O1      17.617767   21.200546   22.642030 O.3        1 MOL1        -0.5509
      22    H14     16.974592   20.812249   22.012611 H          1 MOL1         0.3779
@<TRIPOS>BOND
    1     1     2    1
    2     1     3    1
    3     1     4    1
    4     4     5    1
    5     4     6    1
    6     4     7    1
    7     7     8    1
    8     7     9    1
    9     7    10    1
   10    10    11    1
   11    10    12    1
   12    10    13    1
   13    13    14    1
   14    13    15    1
   15    15    16    1
   16    15    17    1
   17     1    18    1
   18    15    18    1
   19    18    19    1
   20    18    20    1
   21    13    21    1
   22    21    22    1
@<TRIPOS>SUBSTRUCTURE
       1 MOL1            1 RESIDUE      1      MOL     
@<SCITEGIC>MOL_PROPERTY
VConf Rank
SciTegic.value.IntegerValue
818

@<SCITEGIC>MOL_PROPERTY
Conf_Id
SciTegic.value.IntegerValue
144

@<SCITEGIC>MOL_PROPERTY
Delta U+W
SciTegic.value.DoubleValue
-3.291

@<SCITEGIC>MOL_PROPERTY
U+W
SciTegic.value.DoubleValue
3.132

@<SCITEGIC>MOL_PROPERTY
Grad RMS
SciTegic.value.DoubleValue
0.000000

@<SCITEGIC>MOL_PROPERTY
U
SciTegic.value.DoubleValue
5.411

@<SCITEGIC>MOL_PROPERTY
W
SciTegic.value.DoubleValue
-2.279

@<SCITEGIC>MOL_PROPERTY
W(PB)
SciTegic.value.DoubleValue
-4.300

@<SCITEGIC>MOL_PROPERTY
W(SA)
SciTegic.value.DoubleValue
2.021

@<SCITEGIC>MOL_PROPERTY
Valence
SciTegic.value.DoubleValue
11.909

@<SCITEGIC>MOL_PROPERTY
Coulomb
SciTegic.value.DoubleValue
-8.733

@<SCITEGIC>MOL_PROPERTY
VdW
SciTegic.value.DoubleValue
2.236

@<SCITEGIC>MOL_PROPERTY
VdW6
SciTegic.value.DoubleValue
-8.936

@<SCITEGIC>MOL_PROPERTY
VdW12
SciTegic.value.DoubleValue
11.172

@<SCITEGIC>MOL_PROPERTY
Bond
SciTegic.value.DoubleValue
0.223

@<SCITEGIC>MOL_PROPERTY
Angle
SciTegic.value.DoubleValue
2.457

@<SCITEGIC>MOL_PROPERTY
Pdih
SciTegic.value.DoubleValue
9.228

@<SCITEGIC>MOL_PROPERTY
Idih
SciTegic.value.DoubleValue
0.000

@<SCITEGIC>MOL_PROPERTY
Tether
SciTegic.value.DoubleValue
0.000

@<TRIPOS>MOLECULE
guest-5_confgen4.mol2 : confsearch ligand conformer 819
          22          22           1
SMALL
USER_CHARGES
 
@<TRIPOS>ATOM
       1    C1      19.560697   17.903967   22.279030 C.3        1 MOL1        -0.1685
       2    H1      19.613366   16.841138   22.006067 H          1 MOL1         0.0832
       3    H2      18.499043   18.118393   22.462320 H          1 MOL1         0.0832
       4    C2      20.091906   18.731339   21.085151 C.3        1 MOL1        -0.1685
       5    H3      21.189530   18.759743   21.119621 H          1 MOL1         0.0832
       6    H4      19.841751   18.209048   20.151538 H          1 MOL1         0.0832
       7    C3      19.537876   20.173377   20.987678 C.3        1 MOL1        -0.1685
       8    H5      18.564303   20.148599   20.479293 H          1 MOL1         0.0832
       9    H6      20.202372   20.751698   20.331165 H          1 MOL1         0.0832
      10    C4      19.364017   20.934107   22.325289 C.3        1 MOL1        -0.1761
      11    H7      19.294233   22.005916   22.095447 H          1 MOL1         0.0832
      12    H8      18.398903   20.662051   22.771869 H          1 MOL1         0.0832
      13    C5      20.488945   20.700574   23.358533 C.3        1 MOL1         0.1218
      14    H9      21.447779   20.572430   22.836339 H          1 MOL1         0.0789
      15    C6      20.220874   19.473371   24.259137 C.3        1 MOL1        -0.1761
      16    H10     20.905817   19.510263   25.116821 H          1 MOL1         0.0832
      17    H11     19.207894   19.539853   24.676915 H          1 MOL1         0.0832
      18    C7      20.395111   18.100421   23.567498 C.3        1 MOL1        -0.1685
      19    H12     21.458086   17.938765   23.341938 H          1 MOL1         0.0832
      20    H13     20.119330   17.316746   24.286237 H          1 MOL1         0.0832
      21    O1      20.571621   21.846284   24.195626 O.3        1 MOL1        -0.5509
      22    H14     19.702619   21.927544   24.639914 H          1 MOL1         0.3779
@<TRIPOS>BOND
    1     1     2    1
    2     1     3    1
    3     1     4    1
    4     4     5    1
    5     4     6    1
    6     4     7    1
    7     7     8    1
    8     7     9    1
    9     7    10    1
   10    10    11    1
   11    10    12    1
   12    10    13    1
   13    13    14    1
   14    13    15    1
   15    15    16    1
   16    15    17    1
   17     1    18    1
   18    15    18    1
   19    18    19    1
   20    18    20    1
   21    13    21    1
   22    21    22    1
@<TRIPOS>SUBSTRUCTURE
       1 MOL1            1 RESIDUE      1      MOL     
@<SCITEGIC>MOL_PROPERTY
VConf Rank
SciTegic.value.IntegerValue
819

@<SCITEGIC>MOL_PROPERTY
Conf_Id
SciTegic.value.IntegerValue
76

@<SCITEGIC>MOL_PROPERTY
Delta U+W
SciTegic.value.DoubleValue
-3.175

@<SCITEGIC>MOL_PROPERTY
U+W
SciTegic.value.DoubleValue
3.248

@<SCITEGIC>MOL_PROPERTY
Grad RMS
SciTegic.value.DoubleValue
0.000000

@<SCITEGIC>MOL_PROPERTY
U
SciTegic.value.DoubleValue
5.336

@<SCITEGIC>MOL_PROPERTY
W
SciTegic.value.DoubleValue
-2.088

@<SCITEGIC>MOL_PROPERTY
W(PB)
SciTegic.value.DoubleValue
-4.098

@<SCITEGIC>MOL_PROPERTY
W(SA)
SciTegic.value.DoubleValue
2.010

@<SCITEGIC>MOL_PROPERTY
Valence
SciTegic.value.DoubleValue
12.390

@<SCITEGIC>MOL_PROPERTY
Coulomb
SciTegic.value.DoubleValue
-9.270

@<SCITEGIC>MOL_PROPERTY
VdW
SciTegic.value.DoubleValue
2.216

@<SCITEGIC>MOL_PROPERTY
VdW6
SciTegic.value.DoubleValue
-8.967

@<SCITEGIC>MOL_PROPERTY
VdW12
SciTegic.value.DoubleValue
11.183

@<SCITEGIC>MOL_PROPERTY
Bond
SciTegic.value.DoubleValue
0.218

@<SCITEGIC>MOL_PROPERTY
Angle
SciTegic.value.DoubleValue
2.426

@<SCITEGIC>MOL_PROPERTY
Pdih
SciTegic.value.DoubleValue
9.745

@<SCITEGIC>MOL_PROPERTY
Idih
SciTegic.value.DoubleValue
0.000

@<SCITEGIC>MOL_PROPERTY
Tether
SciTegic.value.DoubleValue
0.000

@<TRIPOS>MOLECULE
guest-5_confgen4.mol2 : confsearch ligand conformer 820
          22          22           1
SMALL
USER_CHARGES
 
@<TRIPOS>ATOM
       1    C1      19.325347   19.368247   20.976376 C.3        1 MOL1        -0.1685
       2    H1      18.346991   18.938959   20.720814 H          1 MOL1         0.0832
       3    H2      19.744260   19.739140   20.030985 H          1 MOL1         0.0832
       4    C2      20.227589   18.231175   21.512753 C.3        1 MOL1        -0.1685
       5    H3      19.621816   17.529570   22.102047 H          1 MOL1         0.0832
       6    H4      20.592604   17.653268   20.652770 H          1 MOL1         0.0832
       7    C3      21.438112   18.698169   22.354237 C.3        1 MOL1        -0.1685
       8    H5      21.864324   19.626243   21.949444 H          1 MOL1         0.0832
       9    H6      22.226428   17.938215   22.268689 H          1 MOL1         0.0832
      10    C4      21.097838   18.857878   23.857828 C.3        1 MOL1        -0.1761
      11    H7      20.608885   17.943005   24.216220 H          1 MOL1         0.0832
      12    H8      22.036024   18.931534   24.423333 H          1 MOL1         0.0832
      13    C5      20.218504   20.072139   24.233912 C.3        1 MOL1         0.1218
      14    H9      19.924128   19.937039   25.284715 H          1 MOL1         0.0789
      15    C6      18.914382   20.221703   23.410878 C.3        1 MOL1        -0.1761
      16    H10     18.311485   19.308761   23.499934 H          1 MOL1         0.0832
      17    H11     18.318081   21.016638   23.877022 H          1 MOL1         0.0832
      18    C7      19.116237   20.580056   21.915534 C.3        1 MOL1        -0.1685
      19    H12     18.234880   21.132132   21.562199 H          1 MOL1         0.0832
      20    H13     19.958373   21.275809   21.805195 H          1 MOL1         0.0832
      21    O1      20.995597   21.261854   24.140487 O.3        1 MOL1        -0.5509
      22    H14     20.390334   22.006275   24.334854 H          1 MOL1         0.3779
@<TRIPOS>BOND
    1     1     2    1
    2     1     3    1
    3     1     4    1
    4     4     5    1
    5     4     6    1
    6     4     7    1
    7     7     8    1
    8     7     9    1
    9     7    10    1
   10    10    11    1
   11    10    12    1
   12    10    13    1
   13    13    14    1
   14    13    15    1
   15    15    16    1
   16    15    17    1
   17     1    18    1
   18    15    18    1
   19    18    19    1
   20    18    20    1
   21    13    21    1
   22    21    22    1
@<TRIPOS>SUBSTRUCTURE
       1 MOL1            1 RESIDUE      1      MOL     
@<SCITEGIC>MOL_PROPERTY
VConf Rank
SciTegic.value.IntegerValue
820

@<SCITEGIC>MOL_PROPERTY
Conf_Id
SciTegic.value.IntegerValue
95

@<SCITEGIC>MOL_PROPERTY
Delta U+W
SciTegic.value.DoubleValue
-2.289

@<SCITEGIC>MOL_PROPERTY
U+W
SciTegic.value.DoubleValue
4.134

@<SCITEGIC>MOL_PROPERTY
Grad RMS
SciTegic.value.DoubleValue
0.000000

@<SCITEGIC>MOL_PROPERTY
U
SciTegic.value.DoubleValue
6.373

@<SCITEGIC>MOL_PROPERTY
W
SciTegic.value.DoubleValue
-2.240

@<SCITEGIC>MOL_PROPERTY
W(PB)
SciTegic.value.DoubleValue
-4.254

@<SCITEGIC>MOL_PROPERTY
W(SA)
SciTegic.value.DoubleValue
2.015

@<SCITEGIC>MOL_PROPERTY
Valence
SciTegic.value.DoubleValue
12.093

@<SCITEGIC>MOL_PROPERTY
Coulomb
SciTegic.value.DoubleValue
-8.058

@<SCITEGIC>MOL_PROPERTY
VdW
SciTegic.value.DoubleValue
2.339

@<SCITEGIC>MOL_PROPERTY
VdW6
SciTegic.value.DoubleValue
-9.683

@<SCITEGIC>MOL_PROPERTY
VdW12
SciTegic.value.DoubleValue
12.022

@<SCITEGIC>MOL_PROPERTY
Bond
SciTegic.value.DoubleValue
0.268

@<SCITEGIC>MOL_PROPERTY
Angle
SciTegic.value.DoubleValue
3.005

@<SCITEGIC>MOL_PROPERTY
Pdih
SciTegic.value.DoubleValue
8.820

@<SCITEGIC>MOL_PROPERTY
Idih
SciTegic.value.DoubleValue
0.000

@<SCITEGIC>MOL_PROPERTY
Tether
SciTegic.value.DoubleValue
0.000

@<TRIPOS>MOLECULE
guest-5_confgen4.mol2 : confsearch ligand conformer 821
          22          22           1
SMALL
USER_CHARGES
 
@<TRIPOS>ATOM
       1    C1      18.903438   20.871360   23.604728 C.3        1 MOL1        -0.1685
       2    H1      18.447274   21.784656   23.199070 H          1 MOL1         0.0832
       3    H2      18.536885   20.788417   24.636983 H          1 MOL1         0.0832
       4    C2      20.438009   21.067979   23.632348 C.3        1 MOL1        -0.1685
       5    H3      20.747958   21.651667   22.755012 H          1 MOL1         0.0832
       6    H4      20.684462   21.692347   24.501960 H          1 MOL1         0.0832
       7    C3      21.264830   19.762912   23.700772 C.3        1 MOL1        -0.1685
       8    H5      20.772625   19.018741   24.341681 H          1 MOL1         0.0832
       9    H6      22.224697   19.993105   24.182532 H          1 MOL1         0.0832
      10    C4      21.568710   19.173984   22.300012 C.3        1 MOL1        -0.1761
      11    H7      21.979583   19.965055   21.659476 H          1 MOL1         0.0832
      12    H8      22.372014   18.432289   22.397859 H          1 MOL1         0.0832
      13    C5      20.380394   18.511027   21.566439 C.3        1 MOL1         0.1218
      14    H9      20.714466   18.309111   20.538467 H          1 MOL1         0.0789
      15    C6      19.101800   19.380185   21.465967 C.3        1 MOL1        -0.1761
      16    H10     19.332172   20.328890   20.964592 H          1 MOL1         0.0832
      17    H11     18.402718   18.853188   20.803858 H          1 MOL1         0.0832
      18    C7      18.380117   19.649823   22.812039 C.3        1 MOL1        -0.1685
      19    H12     17.311739   19.809101   22.613509 H          1 MOL1         0.0832
      20    H13     18.426580   18.754715   23.446265 H          1 MOL1         0.0832
      21    O1      20.077800   17.265280   22.187281 O.3        1 MOL1        -0.5509
      22    H14     20.918063   16.765985   22.240640 H          1 MOL1         0.3779
@<TRIPOS>BOND
    1     1     2    1
    2     1     3    1
    3     1     4    1
    4     4     5    1
    5     4     6    1
    6     4     7    1
    7     7     8    1
    8     7     9    1
    9     7    10    1
   10    10    11    1
   11    10    12    1
   12    10    13    1
   13    13    14    1
   14    13    15    1
   15    15    16    1
   16    15    17    1
   17     1    18    1
   18    15    18    1
   19    18    19    1
   20    18    20    1
   21    13    21    1
   22    21    22    1
@<TRIPOS>SUBSTRUCTURE
       1 MOL1            1 RESIDUE      1      MOL     
@<SCITEGIC>MOL_PROPERTY
VConf Rank
SciTegic.value.IntegerValue
821

@<SCITEGIC>MOL_PROPERTY
Conf_Id
SciTegic.value.IntegerValue
41

@<SCITEGIC>MOL_PROPERTY
Delta U+W
SciTegic.value.DoubleValue
-2.114

@<SCITEGIC>MOL_PROPERTY
U+W
SciTegic.value.DoubleValue
4.310

@<SCITEGIC>MOL_PROPERTY
Grad RMS
SciTegic.value.DoubleValue
0.000000

@<SCITEGIC>MOL_PROPERTY
U
SciTegic.value.DoubleValue
6.598

@<SCITEGIC>MOL_PROPERTY
W
SciTegic.value.DoubleValue
-2.289

@<SCITEGIC>MOL_PROPERTY
W(PB)
SciTegic.value.DoubleValue
-4.294

@<SCITEGIC>MOL_PROPERTY
W(SA)
SciTegic.value.DoubleValue
2.005

@<SCITEGIC>MOL_PROPERTY
Valence
SciTegic.value.DoubleValue
12.082

@<SCITEGIC>MOL_PROPERTY
Coulomb
SciTegic.value.DoubleValue
-7.801

@<SCITEGIC>MOL_PROPERTY
VdW
SciTegic.value.DoubleValue
2.317

@<SCITEGIC>MOL_PROPERTY
VdW6
SciTegic.value.DoubleValue
-9.658

@<SCITEGIC>MOL_PROPERTY
VdW12
SciTegic.value.DoubleValue
11.975

@<SCITEGIC>MOL_PROPERTY
Bond
SciTegic.value.DoubleValue
0.267

@<SCITEGIC>MOL_PROPERTY
Angle
SciTegic.value.DoubleValue
3.051

@<SCITEGIC>MOL_PROPERTY
Pdih
SciTegic.value.DoubleValue
8.764

@<SCITEGIC>MOL_PROPERTY
Idih
SciTegic.value.DoubleValue
0.000

@<SCITEGIC>MOL_PROPERTY
Tether
SciTegic.value.DoubleValue
0.000

@<TRIPOS>MOLECULE
guest-5_confgen4.mol2 : confsearch ligand conformer 822
          22          22           1
SMALL
USER_CHARGES
 
@<TRIPOS>ATOM
       1    C1      18.914575   19.531091   21.529768 C.3        1 MOL1        -0.1685
       2    H1      17.980330   19.548715   20.952338 H          1 MOL1         0.0832
       3    H2      19.717047   19.789507   20.825186 H          1 MOL1         0.0832
       4    C2      19.107160   18.098584   22.075863 C.3        1 MOL1        -0.1685
       5    H3      18.331923   17.882997   22.823600 H          1 MOL1         0.0832
       6    H4      18.941900   17.385727   21.256666 H          1 MOL1         0.0832
       7    C3      20.499983   17.822560   22.683381 C.3        1 MOL1        -0.1685
       8    H5      21.254704   17.830800   21.885748 H          1 MOL1         0.0832
       9    H6      20.500050   16.797483   23.077518 H          1 MOL1         0.0832
      10    C4      20.924107   18.784994   23.825758 C.3        1 MOL1        -0.1761
      11    H7      20.135233   18.837035   24.586828 H          1 MOL1         0.0832
      12    H8      21.792422   18.340733   24.328993 H          1 MOL1         0.0832
      13    C5      21.331324   20.216581   23.391287 C.3        1 MOL1         0.1218
      14    H9      21.893338   20.652699   24.229868 H          1 MOL1         0.0789
      15    C6      20.162688   21.193909   23.101014 C.3        1 MOL1        -0.1761
      16    H10     19.976238   21.778691   24.011139 H          1 MOL1         0.0832
      17    H11     20.486789   21.925970   22.349671 H          1 MOL1         0.0832
      18    C7      18.810023   20.588251   22.651152 C.3        1 MOL1        -0.1685
      19    H12     18.286148   20.161237   23.516963 H          1 MOL1         0.0832
      20    H13     18.173989   21.411817   22.299188 H          1 MOL1         0.0832
      21    O1      22.205198   20.166431   22.266677 O.3        1 MOL1        -0.5509
      22    H14     22.458717   21.089818   22.064204 H          1 MOL1         0.3779
@<TRIPOS>BOND
    1     1     2    1
    2     1     3    1
    3     1     4    1
    4     4     5    1
    5     4     6    1
    6     4     7    1
    7     7     8    1
    8     7     9    1
    9     7    10    1
   10    10    11    1
   11    10    12    1
   12    10    13    1
   13    13    14    1
   14    13    15    1
   15    15    16    1
   16    15    17    1
   17     1    18    1
   18    15    18    1
   19    18    19    1
   20    18    20    1
   21    13    21    1
   22    21    22    1
@<TRIPOS>SUBSTRUCTURE
       1 MOL1            1 RESIDUE      1      MOL     
@<SCITEGIC>MOL_PROPERTY
VConf Rank
SciTegic.value.IntegerValue
822

@<SCITEGIC>MOL_PROPERTY
Conf_Id
SciTegic.value.IntegerValue
104

@<SCITEGIC>MOL_PROPERTY
Delta U+W
SciTegic.value.DoubleValue
-1.172

@<SCITEGIC>MOL_PROPERTY
U+W
SciTegic.value.DoubleValue
5.252

@<SCITEGIC>MOL_PROPERTY
Grad RMS
SciTegic.value.DoubleValue
0.000000

@<SCITEGIC>MOL_PROPERTY
U
SciTegic.value.DoubleValue
7.482

@<SCITEGIC>MOL_PROPERTY
W
SciTegic.value.DoubleValue
-2.230

@<SCITEGIC>MOL_PROPERTY
W(PB)
SciTegic.value.DoubleValue
-4.220

@<SCITEGIC>MOL_PROPERTY
W(SA)
SciTegic.value.DoubleValue
1.990

@<SCITEGIC>MOL_PROPERTY
Valence
SciTegic.value.DoubleValue
12.309

@<SCITEGIC>MOL_PROPERTY
Coulomb
SciTegic.value.DoubleValue
-7.084

@<SCITEGIC>MOL_PROPERTY
VdW
SciTegic.value.DoubleValue
2.258

@<SCITEGIC>MOL_PROPERTY
VdW6
SciTegic.value.DoubleValue
-9.770

@<SCITEGIC>MOL_PROPERTY
VdW12
SciTegic.value.DoubleValue
12.028

@<SCITEGIC>MOL_PROPERTY
Bond
SciTegic.value.DoubleValue
0.284

@<SCITEGIC>MOL_PROPERTY
Angle
SciTegic.value.DoubleValue
3.491

@<SCITEGIC>MOL_PROPERTY
Pdih
SciTegic.value.DoubleValue
8.535

@<SCITEGIC>MOL_PROPERTY
Idih
SciTegic.value.DoubleValue
0.000

@<SCITEGIC>MOL_PROPERTY
Tether
SciTegic.value.DoubleValue
0.000

@<TRIPOS>MOLECULE
guest-5_confgen4.mol2 : confsearch ligand conformer 823
          22          22           1
SMALL
USER_CHARGES
 
@<TRIPOS>ATOM
       1    C1      20.658564   20.493619   21.431482 C.3        1 MOL1        -0.1685
       2    H1      21.597625   19.925914   21.382923 H          1 MOL1         0.0832
       3    H2      20.741241   21.280187   20.668976 H          1 MOL1         0.0832
       4    C2      20.500305   21.182601   22.806161 C.3        1 MOL1        -0.1685
       5    H3      21.114840   22.093386   22.814360 H          1 MOL1         0.0832
       6    H4      19.467088   21.536299   22.918846 H          1 MOL1         0.0832
       7    C3      20.904486   20.329628   24.035287 C.3        1 MOL1        -0.1685
       8    H5      20.355664   20.700800   24.911837 H          1 MOL1         0.0832
       9    H6      21.964494   20.517060   24.254787 H          1 MOL1         0.0832
      10    C4      20.713818   18.792292   23.928293 C.3        1 MOL1        -0.1761
      11    H7      21.541695   18.367715   23.345791 H          1 MOL1         0.0832
      12    H8      20.822025   18.366645   24.934333 H          1 MOL1         0.0832
      13    C5      19.378768   18.287674   23.334169 C.3        1 MOL1         0.1218
      14    H9      19.234925   17.255144   23.683558 H          1 MOL1         0.0789
      15    C6      19.389440   18.239210   21.789564 C.3        1 MOL1        -0.1761
      16    H10     20.235299   17.620348   21.463078 H          1 MOL1         0.0832
      17    H11     18.488471   17.706863   21.457741 H          1 MOL1         0.0832
      18    C7      19.451568   19.601558   21.055440 C.3        1 MOL1        -0.1685
      19    H12     19.494395   19.400401   19.976361 H          1 MOL1         0.0832
      20    H13     18.515754   20.153915   21.215541 H          1 MOL1         0.0832
      21    O1      18.296840   19.084337   23.791259 O.3        1 MOL1        -0.5509
      22    H14     18.536404   19.991925   23.517072 H          1 MOL1         0.3779
@<TRIPOS>BOND
    1     1     2    1
    2     1     3    1
    3     1     4    1
    4     4     5    1
    5     4     6    1
    6     4     7    1
    7     7     8    1
    8     7     9    1
    9     7    10    1
   10    10    11    1
   11    10    12    1
   12    10    13    1
   13    13    14    1
   14    13    15    1
   15    15    16    1
   16    15    17    1
   17     1    18    1
   18    15    18    1
   19    18    19    1
   20    18    20    1
   21    13    21    1
   22    21    22    1
@<TRIPOS>SUBSTRUCTURE
       1 MOL1            1 RESIDUE      1      MOL     
@<SCITEGIC>MOL_PROPERTY
VConf Rank
SciTegic.value.IntegerValue
823

@<SCITEGIC>MOL_PROPERTY
Conf_Id
SciTegic.value.IntegerValue
99

@<SCITEGIC>MOL_PROPERTY
Delta U+W
SciTegic.value.DoubleValue
-3.852

@<SCITEGIC>MOL_PROPERTY
U+W
SciTegic.value.DoubleValue
2.572

@<SCITEGIC>MOL_PROPERTY
Grad RMS
SciTegic.value.DoubleValue
0.000000

@<SCITEGIC>MOL_PROPERTY
U
SciTegic.value.DoubleValue
3.922

@<SCITEGIC>MOL_PROPERTY
W
SciTegic.value.DoubleValue
-1.350

@<SCITEGIC>MOL_PROPERTY
W(PB)
SciTegic.value.DoubleValue
-3.345

@<SCITEGIC>MOL_PROPERTY
W(SA)
SciTegic.value.DoubleValue
1.995

@<SCITEGIC>MOL_PROPERTY
Valence
SciTegic.value.DoubleValue
12.571

@<SCITEGIC>MOL_PROPERTY
Coulomb
SciTegic.value.DoubleValue
-10.581

@<SCITEGIC>MOL_PROPERTY
VdW
SciTegic.value.DoubleValue
1.932

@<SCITEGIC>MOL_PROPERTY
VdW6
SciTegic.value.DoubleValue
-10.483

@<SCITEGIC>MOL_PROPERTY
VdW12
SciTegic.value.DoubleValue
12.415

@<SCITEGIC>MOL_PROPERTY
Bond
SciTegic.value.DoubleValue
0.268

@<SCITEGIC>MOL_PROPERTY
Angle
SciTegic.value.DoubleValue
3.728

@<SCITEGIC>MOL_PROPERTY
Pdih
SciTegic.value.DoubleValue
8.575

@<SCITEGIC>MOL_PROPERTY
Idih
SciTegic.value.DoubleValue
0.000

@<SCITEGIC>MOL_PROPERTY
Tether
SciTegic.value.DoubleValue
0.000

@<TRIPOS>MOLECULE
guest-5_confgen4.mol2 : confsearch ligand conformer 824
          22          22           1
SMALL
USER_CHARGES
 
@<TRIPOS>ATOM
       1    C1      20.598731   18.259012   21.824431 C.3        1 MOL1        -0.1685
       2    H1      21.149446   17.794995   20.994556 H          1 MOL1         0.0832
       3    H2      20.192824   17.416879   22.400717 H          1 MOL1         0.0832
       4    C2      19.439184   19.101196   21.216130 C.3        1 MOL1        -0.1685
       5    H3      19.487914   19.001570   20.122974 H          1 MOL1         0.0832
       6    H4      18.469612   18.668546   21.496838 H          1 MOL1         0.0832
       7    C3      19.449494   20.614126   21.553308 C.3        1 MOL1        -0.1685
       8    H5      18.708865   21.116134   20.915984 H          1 MOL1         0.0832
       9    H6      20.410423   21.052951   21.257305 H          1 MOL1         0.0832
      10    C4      19.135799   20.985299   23.029335 C.3        1 MOL1        -0.1761
      11    H7      19.548184   21.983077   23.227119 H          1 MOL1         0.0832
      12    H8      18.048274   21.094618   23.135799 H          1 MOL1         0.0832
      13    C5      19.619392   20.025370   24.144159 C.3        1 MOL1         0.1218
      14    H9      19.508675   20.561606   25.097557 H          1 MOL1         0.0789
      15    C6      21.094542   19.562211   24.057213 C.3        1 MOL1        -0.1761
      16    H10     21.738436   20.391707   24.376709 H          1 MOL1         0.0832
      17    H11     21.239302   18.776032   24.810183 H          1 MOL1         0.0832
      18    C7      21.620352   19.037292   22.692374 C.3        1 MOL1        -0.1685
      19    H12     22.041091   19.868566   22.113125 H          1 MOL1         0.0832
      20    H13     22.476847   18.379320   22.892907 H          1 MOL1         0.0832
      21    O1      18.767127   18.892314   24.199585 O.3        1 MOL1        -0.5509
      22    H14     18.901356   18.453079   23.335879 H          1 MOL1         0.3779
@<TRIPOS>BOND
    1     1     2    1
    2     1     3    1
    3     1     4    1
    4     4     5    1
    5     4     6    1
    6     4     7    1
    7     7     8    1
    8     7     9    1
    9     7    10    1
   10    10    11    1
   11    10    12    1
   12    10    13    1
   13    13    14    1
   14    13    15    1
   15    15    16    1
   16    15    17    1
   17     1    18    1
   18    15    18    1
   19    18    19    1
   20    18    20    1
   21    13    21    1
   22    21    22    1
@<TRIPOS>SUBSTRUCTURE
       1 MOL1            1 RESIDUE      1      MOL     
@<SCITEGIC>MOL_PROPERTY
VConf Rank
SciTegic.value.IntegerValue
824

@<SCITEGIC>MOL_PROPERTY
Conf_Id
SciTegic.value.IntegerValue
98

@<SCITEGIC>MOL_PROPERTY
Delta U+W
SciTegic.value.DoubleValue
0.930

@<SCITEGIC>MOL_PROPERTY
U+W
SciTegic.value.DoubleValue
7.353

@<SCITEGIC>MOL_PROPERTY
Grad RMS
SciTegic.value.DoubleValue
0.000000

@<SCITEGIC>MOL_PROPERTY
U
SciTegic.value.DoubleValue
8.455

@<SCITEGIC>MOL_PROPERTY
W
SciTegic.value.DoubleValue
-1.102

@<SCITEGIC>MOL_PROPERTY
W(PB)
SciTegic.value.DoubleValue
-3.101

@<SCITEGIC>MOL_PROPERTY
W(SA)
SciTegic.value.DoubleValue
2.000

@<SCITEGIC>MOL_PROPERTY
Valence
SciTegic.value.DoubleValue
15.601

@<SCITEGIC>MOL_PROPERTY
Coulomb
SciTegic.value.DoubleValue
-10.573

@<SCITEGIC>MOL_PROPERTY
VdW
SciTegic.value.DoubleValue
3.427

@<SCITEGIC>MOL_PROPERTY
VdW6
SciTegic.value.DoubleValue
-11.360

@<SCITEGIC>MOL_PROPERTY
VdW12
SciTegic.value.DoubleValue
14.787

@<SCITEGIC>MOL_PROPERTY
Bond
SciTegic.value.DoubleValue
0.471

@<SCITEGIC>MOL_PROPERTY
Angle
SciTegic.value.DoubleValue
5.445

@<SCITEGIC>MOL_PROPERTY
Pdih
SciTegic.value.DoubleValue
9.685

@<SCITEGIC>MOL_PROPERTY
Idih
SciTegic.value.DoubleValue
0.000

@<SCITEGIC>MOL_PROPERTY
Tether
SciTegic.value.DoubleValue
0.000

@<TRIPOS>MOLECULE
guest-5_confgen4.mol2 : confsearch ligand conformer 825
          22          22           1
SMALL
USER_CHARGES
 
@<TRIPOS>ATOM
       1    C1      21.616563   20.158971   22.682637 C.3        1 MOL1        -0.1685
       2    H1      21.829526   19.508987   21.824181 H          1 MOL1         0.0832
       3    H2      22.543637   20.724216   22.849200 H          1 MOL1         0.0832
       4    C2      21.334004   19.294034   23.937310 C.3        1 MOL1        -0.1685
       5    H3      22.223754   18.676141   24.120143 H          1 MOL1         0.0832
       6    H4      21.237137   19.943824   24.817659 H          1 MOL1         0.0832
       7    C3      20.099814   18.353145   23.858900 C.3        1 MOL1        -0.1685
       8    H5      19.266005   18.777452   24.433129 H          1 MOL1         0.0832
       9    H6      20.350217   17.416107   24.374549 H          1 MOL1         0.0832
      10    C4      19.620103   18.016927   22.422048 C.3        1 MOL1        -0.1761
      11    H7      20.471966   17.653264   21.834081 H          1 MOL1         0.0832
      12    H8      18.932147   17.162620   22.479175 H          1 MOL1         0.0832
      13    C5      18.922720   19.174802   21.649485 C.3        1 MOL1         0.1218
      14    H9      19.344469   19.207164   20.634523 H          1 MOL1         0.0789
      15    C6      19.060439   20.585460   22.275051 C.3        1 MOL1        -0.1761
      16    H10     18.430700   21.286842   21.712423 H          1 MOL1         0.0832
      17    H11     18.645659   20.581142   23.290200 H          1 MOL1         0.0832
      18    C7      20.498687   21.160090   22.307463 C.3        1 MOL1        -0.1685
      19    H12     20.735084   21.582228   21.321192 H          1 MOL1         0.0832
      20    H13     20.520564   22.004498   23.009721 H          1 MOL1         0.0832
      21    O1      17.532918   18.882745   21.558220 O.3        1 MOL1        -0.5509
      22    H14     17.129141   19.595145   21.020047 H          1 MOL1         0.3779
@<TRIPOS>BOND
    1     1     2    1
    2     1     3    1
    3     1     4    1
    4     4     5    1
    5     4     6    1
    6     4     7    1
    7     7     8    1
    8     7     9    1
    9     7    10    1
   10    10    11    1
   11    10    12    1
   12    10    13    1
   13    13    14    1
   14    13    15    1
   15    15    16    1
   16    15    17    1
   17     1    18    1
   18    15    18    1
   19    18    19    1
   20    18    20    1
   21    13    21    1
   22    21    22    1
@<TRIPOS>SUBSTRUCTURE
       1 MOL1            1 RESIDUE      1      MOL     
@<SCITEGIC>MOL_PROPERTY
VConf Rank
SciTegic.value.IntegerValue
825

@<SCITEGIC>MOL_PROPERTY
Conf_Id
SciTegic.value.IntegerValue
141

@<SCITEGIC>MOL_PROPERTY
Delta U+W
SciTegic.value.DoubleValue
0.000

@<SCITEGIC>MOL_PROPERTY
U+W
SciTegic.value.DoubleValue
6.423

@<SCITEGIC>MOL_PROPERTY
Grad RMS
SciTegic.value.DoubleValue
0.000000

@<SCITEGIC>MOL_PROPERTY
U
SciTegic.value.DoubleValue
8.781

@<SCITEGIC>MOL_PROPERTY
W
SciTegic.value.DoubleValue
-2.358

@<SCITEGIC>MOL_PROPERTY
W(PB)
SciTegic.value.DoubleValue
-4.373

@<SCITEGIC>MOL_PROPERTY
W(SA)
SciTegic.value.DoubleValue
2.015

@<SCITEGIC>MOL_PROPERTY
Valence
SciTegic.value.DoubleValue
13.328

@<SCITEGIC>MOL_PROPERTY
Coulomb
SciTegic.value.DoubleValue
-8.387

@<SCITEGIC>MOL_PROPERTY
VdW
SciTegic.value.DoubleValue
3.840

@<SCITEGIC>MOL_PROPERTY
VdW6
SciTegic.value.DoubleValue
-9.744

@<SCITEGIC>MOL_PROPERTY
VdW12
SciTegic.value.DoubleValue
13.584

@<SCITEGIC>MOL_PROPERTY
Bond
SciTegic.value.DoubleValue
0.436

@<SCITEGIC>MOL_PROPERTY
Angle
SciTegic.value.DoubleValue
3.478

@<SCITEGIC>MOL_PROPERTY
Pdih
SciTegic.value.DoubleValue
9.415

@<SCITEGIC>MOL_PROPERTY
Idih
SciTegic.value.DoubleValue
0.000

@<SCITEGIC>MOL_PROPERTY
Tether
SciTegic.value.DoubleValue
0.000

@<TRIPOS>MOLECULE
guest-5_confgen4.mol2 : confsearch ligand conformer 826
          22          22           1
SMALL
USER_CHARGES
 
@<TRIPOS>ATOM
       1    C1      20.267872   19.386473   20.947466 C.3        1 MOL1        -0.1685
       2    H1      20.917561   20.272064   20.962969 H          1 MOL1         0.0832
       3    H2      20.315345   18.992938   19.922878 H          1 MOL1         0.0832
       4    C2      18.797007   19.773910   21.234004 C.3        1 MOL1        -0.1685
       5    H3      18.416227   20.355369   20.383260 H          1 MOL1         0.0832
       6    H4      18.181891   18.864523   21.273062 H          1 MOL1         0.0832
       7    C3      18.571487   20.599366   22.521674 C.3        1 MOL1        -0.1685
       8    H5      17.490556   20.750274   22.646736 H          1 MOL1         0.0832
       9    H6      19.000935   21.602232   22.392083 H          1 MOL1         0.0832
      10    C4      19.134176   19.960667   23.814974 C.3        1 MOL1        -0.1761
      11    H7      18.715181   20.512075   24.666958 H          1 MOL1         0.0832
      12    H8      18.784490   18.925387   23.919436 H          1 MOL1         0.0832
      13    C5      20.676471   20.020990   23.887879 C.3        1 MOL1         0.1218
      14    H9      21.009111   20.940226   23.384690 H          1 MOL1         0.0789
      15    C6      21.397554   18.821171   23.232311 C.3        1 MOL1        -0.1761
      16    H10     22.439949   19.116866   23.056736 H          1 MOL1         0.0832
      17    H11     21.437627   17.987259   23.945821 H          1 MOL1         0.0832
      18    C7      20.799682   18.293673   21.904027 C.3        1 MOL1        -0.1685
      19    H12     21.577914   17.715382   21.387539 H          1 MOL1         0.0832
      20    H13     19.996497   17.576604   22.121780 H          1 MOL1         0.0832
      21    O1      21.068898   20.078294   25.253871 O.3        1 MOL1        -0.5509
      22    H14     20.662628   20.886765   25.630617 H          1 MOL1         0.3779
@<TRIPOS>BOND
    1     1     2    1
    2     1     3    1
    3     1     4    1
    4     4     5    1
    5     4     6    1
    6     4     7    1
    7     7     8    1
    8     7     9    1
    9     7    10    1
   10    10    11    1
   11    10    12    1
   12    10    13    1
   13    13    14    1
   14    13    15    1
   15    15    16    1
   16    15    17    1
   17     1    18    1
   18    15    18    1
   19    18    19    1
   20    18    20    1
   21    13    21    1
   22    21    22    1
@<TRIPOS>SUBSTRUCTURE
       1 MOL1            1 RESIDUE      1      MOL     
@<SCITEGIC>MOL_PROPERTY
VConf Rank
SciTegic.value.IntegerValue
826

@<SCITEGIC>MOL_PROPERTY
Conf_Id
SciTegic.value.IntegerValue
144

@<SCITEGIC>MOL_PROPERTY
Delta U+W
SciTegic.value.DoubleValue
-3.291

@<SCITEGIC>MOL_PROPERTY
U+W
SciTegic.value.DoubleValue
3.132

@<SCITEGIC>MOL_PROPERTY
Grad RMS
SciTegic.value.DoubleValue
0.000000

@<SCITEGIC>MOL_PROPERTY
U
SciTegic.value.DoubleValue
5.411

@<SCITEGIC>MOL_PROPERTY
W
SciTegic.value.DoubleValue
-2.279

@<SCITEGIC>MOL_PROPERTY
W(PB)
SciTegic.value.DoubleValue
-4.300

@<SCITEGIC>MOL_PROPERTY
W(SA)
SciTegic.value.DoubleValue
2.021

@<SCITEGIC>MOL_PROPERTY
Valence
SciTegic.value.DoubleValue
11.909

@<SCITEGIC>MOL_PROPERTY
Coulomb
SciTegic.value.DoubleValue
-8.733

@<SCITEGIC>MOL_PROPERTY
VdW
SciTegic.value.DoubleValue
2.236

@<SCITEGIC>MOL_PROPERTY
VdW6
SciTegic.value.DoubleValue
-8.936

@<SCITEGIC>MOL_PROPERTY
VdW12
SciTegic.value.DoubleValue
11.172

@<SCITEGIC>MOL_PROPERTY
Bond
SciTegic.value.DoubleValue
0.223

@<SCITEGIC>MOL_PROPERTY
Angle
SciTegic.value.DoubleValue
2.457

@<SCITEGIC>MOL_PROPERTY
Pdih
SciTegic.value.DoubleValue
9.228

@<SCITEGIC>MOL_PROPERTY
Idih
SciTegic.value.DoubleValue
0.000

@<SCITEGIC>MOL_PROPERTY
Tether
SciTegic.value.DoubleValue
0.000

@<TRIPOS>MOLECULE
guest-5_confgen4.mol2 : confsearch ligand conformer 827
          22          22           1
SMALL
USER_CHARGES
 
@<TRIPOS>ATOM
       1    C1      20.644236   21.097311   22.304131 C.3        1 MOL1        -0.1685
       2    H1      20.841816   22.173790   22.209023 H          1 MOL1         0.0832
       3    H2      21.519244   20.588838   21.876931 H          1 MOL1         0.0832
       4    C2      19.367672   20.771869   21.493855 C.3        1 MOL1        -0.1685
       5    H3      18.481102   21.004994   22.099181 H          1 MOL1         0.0832
       6    H4      19.315651   21.445009   20.627152 H          1 MOL1         0.0832
       7    C3      19.273485   19.317055   20.973694 C.3        1 MOL1        -0.1685
       8    H5      19.836398   19.236430   20.033723 H          1 MOL1         0.0832
       9    H6      18.225884   19.114223   20.712141 H          1 MOL1         0.0832
      10    C4      19.776673   18.210715   21.933358 C.3        1 MOL1        -0.1761
      11    H7      19.354908   17.254831   21.594432 H          1 MOL1         0.0832
      12    H8      20.864649   18.109890   21.828299 H          1 MOL1         0.0832
      13    C5      19.425387   18.430323   23.421969 C.3        1 MOL1         0.1218
      14    H9      18.445748   18.922900   23.500353 H          1 MOL1         0.0789
      15    C6      20.489277   19.270781   24.164093 C.3        1 MOL1        -0.1761
      16    H10     20.320204   19.176932   25.245175 H          1 MOL1         0.0832
      17    H11     21.485509   18.850112   23.975298 H          1 MOL1         0.0832
      18    C7      20.499669   20.777151   23.811310 C.3        1 MOL1        -0.1685
      19    H12     19.585559   21.247924   24.198224 H          1 MOL1         0.0832
      20    H13     21.331262   21.250210   24.351177 H          1 MOL1         0.0832
      21    O1      19.352675   17.160280   24.055937 O.3        1 MOL1        -0.5509
      22    H14     20.239064   16.754059   23.963974 H          1 MOL1         0.3779
@<TRIPOS>BOND
    1     1     2    1
    2     1     3    1
    3     1     4    1
    4     4     5    1
    5     4     6    1
    6     4     7    1
    7     7     8    1
    8     7     9    1
    9     7    10    1
   10    10    11    1
   11    10    12    1
   12    10    13    1
   13    13    14    1
   14    13    15    1
   15    15    16    1
   16    15    17    1
   17     1    18    1
   18    15    18    1
   19    18    19    1
   20    18    20    1
   21    13    21    1
   22    21    22    1
@<TRIPOS>SUBSTRUCTURE
       1 MOL1            1 RESIDUE      1      MOL     
@<SCITEGIC>MOL_PROPERTY
VConf Rank
SciTegic.value.IntegerValue
827

@<SCITEGIC>MOL_PROPERTY
Conf_Id
SciTegic.value.IntegerValue
76

@<SCITEGIC>MOL_PROPERTY
Delta U+W
SciTegic.value.DoubleValue
-3.175

@<SCITEGIC>MOL_PROPERTY
U+W
SciTegic.value.DoubleValue
3.248

@<SCITEGIC>MOL_PROPERTY
Grad RMS
SciTegic.value.DoubleValue
0.000000

@<SCITEGIC>MOL_PROPERTY
U
SciTegic.value.DoubleValue
5.336

@<SCITEGIC>MOL_PROPERTY
W
SciTegic.value.DoubleValue
-2.088

@<SCITEGIC>MOL_PROPERTY
W(PB)
SciTegic.value.DoubleValue
-4.098

@<SCITEGIC>MOL_PROPERTY
W(SA)
SciTegic.value.DoubleValue
2.010

@<SCITEGIC>MOL_PROPERTY
Valence
SciTegic.value.DoubleValue
12.390

@<SCITEGIC>MOL_PROPERTY
Coulomb
SciTegic.value.DoubleValue
-9.270

@<SCITEGIC>MOL_PROPERTY
VdW
SciTegic.value.DoubleValue
2.216

@<SCITEGIC>MOL_PROPERTY
VdW6
SciTegic.value.DoubleValue
-8.967

@<SCITEGIC>MOL_PROPERTY
VdW12
SciTegic.value.DoubleValue
11.183

@<SCITEGIC>MOL_PROPERTY
Bond
SciTegic.value.DoubleValue
0.218

@<SCITEGIC>MOL_PROPERTY
Angle
SciTegic.value.DoubleValue
2.426

@<SCITEGIC>MOL_PROPERTY
Pdih
SciTegic.value.DoubleValue
9.745

@<SCITEGIC>MOL_PROPERTY
Idih
SciTegic.value.DoubleValue
0.000

@<SCITEGIC>MOL_PROPERTY
Tether
SciTegic.value.DoubleValue
0.000

@<TRIPOS>MOLECULE
guest-5_confgen4.mol2 : confsearch ligand conformer 828
          22          22           1
SMALL
USER_CHARGES
 
@<TRIPOS>ATOM
       1    C1      18.949865   18.721547   21.436200 C.3        1 MOL1        -0.1685
       2    H1      17.995037   18.215083   21.632612 H          1 MOL1         0.0832
       3    H2      19.074599   18.709701   20.344817 H          1 MOL1         0.0832
       4    C2      20.082305   17.885779   22.079430 C.3        1 MOL1        -0.1685
       5    H3      19.727465   17.453919   23.024980 H          1 MOL1         0.0832
       6    H4      20.286054   17.028547   21.423364 H          1 MOL1         0.0832
       7    C3      21.401846   18.653128   22.327486 C.3        1 MOL1        -0.1685
       8    H5      21.603771   19.362388   21.513229 H          1 MOL1         0.0832
       9    H6      22.226403   17.927780   22.311168 H          1 MOL1         0.0832
      10    C4      21.430358   19.369101   23.701767 C.3        1 MOL1        -0.1761
      11    H7      21.155028   18.653593   24.487104 H          1 MOL1         0.0832
      12    H8      22.464766   19.664282   23.921502 H          1 MOL1         0.0832
      13    C5      20.538102   20.623987   23.836816 C.3        1 MOL1         0.1218
      14    H9      20.532125   20.895539   24.902331 H          1 MOL1         0.0789
      15    C6      19.061929   20.432545   23.406989 C.3        1 MOL1        -0.1761
      16    H10     18.609778   19.614833   23.982998 H          1 MOL1         0.0832
      17    H11     18.512692   21.337569   23.696916 H          1 MOL1         0.0832
      18    C7      18.842523   20.196967   21.889893 C.3        1 MOL1        -0.1685
      19    H12     17.843288   20.561827   21.616341 H          1 MOL1         0.0832
      20    H13     19.544523   20.808760   21.308217 H          1 MOL1         0.0832
      21    O1      21.124709   21.698110   23.108686 O.3        1 MOL1        -0.5509
      22    H14     20.505055   22.452825   23.177382 H          1 MOL1         0.3779
@<TRIPOS>BOND
    1     1     2    1
    2     1     3    1
    3     1     4    1
    4     4     5    1
    5     4     6    1
    6     4     7    1
    7     7     8    1
    8     7     9    1
    9     7    10    1
   10    10    11    1
   11    10    12    1
   12    10    13    1
   13    13    14    1
   14    13    15    1
   15    15    16    1
   16    15    17    1
   17     1    18    1
   18    15    18    1
   19    18    19    1
   20    18    20    1
   21    13    21    1
   22    21    22    1
@<TRIPOS>SUBSTRUCTURE
       1 MOL1            1 RESIDUE      1      MOL     
@<SCITEGIC>MOL_PROPERTY
VConf Rank
SciTegic.value.IntegerValue
828

@<SCITEGIC>MOL_PROPERTY
Conf_Id
SciTegic.value.IntegerValue
95

@<SCITEGIC>MOL_PROPERTY
Delta U+W
SciTegic.value.DoubleValue
-2.289

@<SCITEGIC>MOL_PROPERTY
U+W
SciTegic.value.DoubleValue
4.134

@<SCITEGIC>MOL_PROPERTY
Grad RMS
SciTegic.value.DoubleValue
0.000000

@<SCITEGIC>MOL_PROPERTY
U
SciTegic.value.DoubleValue
6.373

@<SCITEGIC>MOL_PROPERTY
W
SciTegic.value.DoubleValue
-2.240

@<SCITEGIC>MOL_PROPERTY
W(PB)
SciTegic.value.DoubleValue
-4.254

@<SCITEGIC>MOL_PROPERTY
W(SA)
SciTegic.value.DoubleValue
2.015

@<SCITEGIC>MOL_PROPERTY
Valence
SciTegic.value.DoubleValue
12.093

@<SCITEGIC>MOL_PROPERTY
Coulomb
SciTegic.value.DoubleValue
-8.058

@<SCITEGIC>MOL_PROPERTY
VdW
SciTegic.value.DoubleValue
2.339

@<SCITEGIC>MOL_PROPERTY
VdW6
SciTegic.value.DoubleValue
-9.683

@<SCITEGIC>MOL_PROPERTY
VdW12
SciTegic.value.DoubleValue
12.022

@<SCITEGIC>MOL_PROPERTY
Bond
SciTegic.value.DoubleValue
0.268

@<SCITEGIC>MOL_PROPERTY
Angle
SciTegic.value.DoubleValue
3.005

@<SCITEGIC>MOL_PROPERTY
Pdih
SciTegic.value.DoubleValue
8.820

@<SCITEGIC>MOL_PROPERTY
Idih
SciTegic.value.DoubleValue
0.000

@<SCITEGIC>MOL_PROPERTY
Tether
SciTegic.value.DoubleValue
0.000

@<TRIPOS>MOLECULE
guest-5_confgen4.mol2 : confsearch ligand conformer 829
          22          22           1
SMALL
USER_CHARGES
 
@<TRIPOS>ATOM
       1    C1      21.895554   20.027675   22.444436 C.3        1 MOL1        -0.1685
       2    H1      22.564505   20.595916   23.105012 H          1 MOL1         0.0832
       3    H2      22.519820   19.692884   21.604795 H          1 MOL1         0.0832
       4    C2      20.810629   20.992138   21.908640 C.3        1 MOL1        -0.1685
       5    H3      20.541715   21.712447   22.693063 H          1 MOL1         0.0832
       6    H4      21.256487   21.589872   21.101966 H          1 MOL1         0.0832
       7    C3      19.529805   20.307588   21.377227 C.3        1 MOL1        -0.1685
       8    H5      19.771943   19.372636   20.853727 H          1 MOL1         0.0832
       9    H6      19.077006   20.969062   20.626327 H          1 MOL1         0.0832
      10    C4      18.477400   20.064338   22.488345 C.3        1 MOL1        -0.1761
      11    H7      18.322531   20.996809   23.046384 H          1 MOL1         0.0832
      12    H8      17.511636   19.844733   22.014999 H          1 MOL1         0.0832
      13    C5      18.795545   18.933619   23.493329 C.3        1 MOL1         0.1218
      14    H9      18.053597   19.008850   24.301385 H          1 MOL1         0.0789
      15    C6      20.195108   19.014332   24.152906 C.3        1 MOL1        -0.1761
      16    H10     20.312133   19.977022   24.666736 H          1 MOL1         0.0832
      17    H11     20.227678   18.248979   24.939038 H          1 MOL1         0.0832
      18    C7      21.390627   18.772259   23.195003 C.3        1 MOL1        -0.1685
      19    H12     22.230083   18.365492   23.774719 H          1 MOL1         0.0832
      20    H13     21.134269   17.989893   22.468503 H          1 MOL1         0.0832
      21    O1      18.628107   17.672125   22.853415 O.3        1 MOL1        -0.5509
      22    H14     17.740155   17.681146   22.441535 H          1 MOL1         0.3779
@<TRIPOS>BOND
    1     1     2    1
    2     1     3    1
    3     1     4    1
    4     4     5    1
    5     4     6    1
    6     4     7    1
    7     7     8    1
    8     7     9    1
    9     7    10    1
   10    10    11    1
   11    10    12    1
   12    10    13    1
   13    13    14    1
   14    13    15    1
   15    15    16    1
   16    15    17    1
   17     1    18    1
   18    15    18    1
   19    18    19    1
   20    18    20    1
   21    13    21    1
   22    21    22    1
@<TRIPOS>SUBSTRUCTURE
       1 MOL1            1 RESIDUE      1      MOL     
@<SCITEGIC>MOL_PROPERTY
VConf Rank
SciTegic.value.IntegerValue
829

@<SCITEGIC>MOL_PROPERTY
Conf_Id
SciTegic.value.IntegerValue
41

@<SCITEGIC>MOL_PROPERTY
Delta U+W
SciTegic.value.DoubleValue
-2.114

@<SCITEGIC>MOL_PROPERTY
U+W
SciTegic.value.DoubleValue
4.310

@<SCITEGIC>MOL_PROPERTY
Grad RMS
SciTegic.value.DoubleValue
0.000000

@<SCITEGIC>MOL_PROPERTY
U
SciTegic.value.DoubleValue
6.598

@<SCITEGIC>MOL_PROPERTY
W
SciTegic.value.DoubleValue
-2.289

@<SCITEGIC>MOL_PROPERTY
W(PB)
SciTegic.value.DoubleValue
-4.294

@<SCITEGIC>MOL_PROPERTY
W(SA)
SciTegic.value.DoubleValue
2.005

@<SCITEGIC>MOL_PROPERTY
Valence
SciTegic.value.DoubleValue
12.082

@<SCITEGIC>MOL_PROPERTY
Coulomb
SciTegic.value.DoubleValue
-7.801

@<SCITEGIC>MOL_PROPERTY
VdW
SciTegic.value.DoubleValue
2.317

@<SCITEGIC>MOL_PROPERTY
VdW6
SciTegic.value.DoubleValue
-9.658

@<SCITEGIC>MOL_PROPERTY
VdW12
SciTegic.value.DoubleValue
11.975

@<SCITEGIC>MOL_PROPERTY
Bond
SciTegic.value.DoubleValue
0.267

@<SCITEGIC>MOL_PROPERTY
Angle
SciTegic.value.DoubleValue
3.051

@<SCITEGIC>MOL_PROPERTY
Pdih
SciTegic.value.DoubleValue
8.764

@<SCITEGIC>MOL_PROPERTY
Idih
SciTegic.value.DoubleValue
0.000

@<SCITEGIC>MOL_PROPERTY
Tether
SciTegic.value.DoubleValue
0.000

@<TRIPOS>MOLECULE
guest-5_confgen4.mol2 : confsearch ligand conformer 830
          22          22           1
SMALL
USER_CHARGES
 
@<TRIPOS>ATOM
       1    C1      19.529461   20.456289   23.989446 C.3        1 MOL1        -0.1685
       2    H1      19.261341   20.866126   24.972652 H          1 MOL1         0.0832
       3    H2      19.503603   21.300306   23.286493 H          1 MOL1         0.0832
       4    C2      18.468825   19.398020   23.611947 C.3        1 MOL1        -0.1685
       5    H3      18.552841   18.536151   24.287745 H          1 MOL1         0.0832
       6    H4      17.471288   19.822760   23.788232 H          1 MOL1         0.0832
       7    C3      18.535780   18.912789   22.147266 C.3        1 MOL1        -0.1685
       8    H5      18.241945   19.731699   21.477239 H          1 MOL1         0.0832
       9    H6      17.772083   18.135007   22.013302 H          1 MOL1         0.0832
      10    C4      19.906792   18.332017   21.706566 C.3        1 MOL1        -0.1761
      11    H7      20.238396   17.566593   22.419604 H          1 MOL1         0.0832
      12    H8      19.754085   17.805086   20.755983 H          1 MOL1         0.0832
      13    C5      21.040191   19.365254   21.478836 C.3        1 MOL1         0.1218
      14    H9      21.812690   18.859386   20.881659 H          1 MOL1         0.0789
      15    C6      21.752151   19.881428   22.756262 C.3        1 MOL1        -0.1761
      16    H10     22.656103   19.277284   22.907736 H          1 MOL1         0.0832
      17    H11     22.114689   20.902011   22.576127 H          1 MOL1         0.0832
      18    C7      20.953967   19.866413   24.083506 C.3        1 MOL1        -0.1685
      19    H12     20.907112   18.842811   24.479052 H          1 MOL1         0.0832
      20    H13     21.524374   20.442493   24.824752 H          1 MOL1         0.0832
      21    O1      20.561435   20.470299   20.716874 O.3        1 MOL1        -0.5509
      22    H14     21.324735   21.065411   20.571529 H          1 MOL1         0.3779
@<TRIPOS>BOND
    1     1     2    1
    2     1     3    1
    3     1     4    1
    4     4     5    1
    5     4     6    1
    6     4     7    1
    7     7     8    1
    8     7     9    1
    9     7    10    1
   10    10    11    1
   11    10    12    1
   12    10    13    1
   13    13    14    1
   14    13    15    1
   15    15    16    1
   16    15    17    1
   17     1    18    1
   18    15    18    1
   19    18    19    1
   20    18    20    1
   21    13    21    1
   22    21    22    1
@<TRIPOS>SUBSTRUCTURE
       1 MOL1            1 RESIDUE      1      MOL     
@<SCITEGIC>MOL_PROPERTY
VConf Rank
SciTegic.value.IntegerValue
830

@<SCITEGIC>MOL_PROPERTY
Conf_Id
SciTegic.value.IntegerValue
104

@<SCITEGIC>MOL_PROPERTY
Delta U+W
SciTegic.value.DoubleValue
-1.172

@<SCITEGIC>MOL_PROPERTY
U+W
SciTegic.value.DoubleValue
5.252

@<SCITEGIC>MOL_PROPERTY
Grad RMS
SciTegic.value.DoubleValue
0.000000

@<SCITEGIC>MOL_PROPERTY
U
SciTegic.value.DoubleValue
7.482

@<SCITEGIC>MOL_PROPERTY
W
SciTegic.value.DoubleValue
-2.230

@<SCITEGIC>MOL_PROPERTY
W(PB)
SciTegic.value.DoubleValue
-4.220

@<SCITEGIC>MOL_PROPERTY
W(SA)
SciTegic.value.DoubleValue
1.990

@<SCITEGIC>MOL_PROPERTY
Valence
SciTegic.value.DoubleValue
12.309

@<SCITEGIC>MOL_PROPERTY
Coulomb
SciTegic.value.DoubleValue
-7.084

@<SCITEGIC>MOL_PROPERTY
VdW
SciTegic.value.DoubleValue
2.258

@<SCITEGIC>MOL_PROPERTY
VdW6
SciTegic.value.DoubleValue
-9.770

@<SCITEGIC>MOL_PROPERTY
VdW12
SciTegic.value.DoubleValue
12.028

@<SCITEGIC>MOL_PROPERTY
Bond
SciTegic.value.DoubleValue
0.284

@<SCITEGIC>MOL_PROPERTY
Angle
SciTegic.value.DoubleValue
3.491

@<SCITEGIC>MOL_PROPERTY
Pdih
SciTegic.value.DoubleValue
8.535

@<SCITEGIC>MOL_PROPERTY
Idih
SciTegic.value.DoubleValue
0.000

@<SCITEGIC>MOL_PROPERTY
Tether
SciTegic.value.DoubleValue
0.000

@<TRIPOS>MOLECULE
guest-5_confgen4.mol2 : confsearch ligand conformer 831
          22          22           1
SMALL
USER_CHARGES
 
@<TRIPOS>ATOM
       1    C1      18.956721   18.502531   22.118618 C.3        1 MOL1        -0.1685
       2    H1      19.705065   17.928423   21.555710 H          1 MOL1         0.0832
       3    H2      17.993206   18.009562   21.930042 H          1 MOL1         0.0832
       4    C2      18.858450   19.951089   21.588047 C.3        1 MOL1        -0.1685
       5    H3      18.248774   19.948764   20.673969 H          1 MOL1         0.0832
       6    H4      18.294306   20.563088   22.303963 H          1 MOL1         0.0832
       7    C3      20.207447   20.636717   21.253688 C.3        1 MOL1        -0.1685
       8    H5      20.073420   21.724505   21.331591 H          1 MOL1         0.0832
       9    H6      20.440959   20.447184   20.197052 H          1 MOL1         0.0832
      10    C4      21.446388   20.214937   22.089349 C.3        1 MOL1        -0.1761
      11    H7      21.825294   19.256788   21.710752 H          1 MOL1         0.0832
      12    H8      22.248589   20.938555   21.894796 H          1 MOL1         0.0832
      13    C5      21.259429   20.104919   23.620010 C.3        1 MOL1         0.1218
      14    H9      22.254608   20.196505   24.078390 H          1 MOL1         0.0789
      15    C6      20.689914   18.736778   24.058317 C.3        1 MOL1        -0.1761
      16    H10     21.344948   17.943972   23.674325 H          1 MOL1         0.0832
      17    H11     20.758081   18.672376   25.152141 H          1 MOL1         0.0832
      18    C7      19.230901   18.428945   23.639615 C.3        1 MOL1        -0.1685
      19    H12     18.988861   17.414612   23.984950 H          1 MOL1         0.0832
      20    H13     18.541250   19.095243   24.175251 H          1 MOL1         0.0832
      21    O1      20.432877   21.154865   24.098125 O.3        1 MOL1        -0.5509
      22    H14     19.604220   21.057163   23.588157 H          1 MOL1         0.3779
@<TRIPOS>BOND
    1     1     2    1
    2     1     3    1
    3     1     4    1
    4     4     5    1
    5     4     6    1
    6     4     7    1
    7     7     8    1
    8     7     9    1
    9     7    10    1
   10    10    11    1
   11    10    12    1
   12    10    13    1
   13    13    14    1
   14    13    15    1
   15    15    16    1
   16    15    17    1
   17     1    18    1
   18    15    18    1
   19    18    19    1
   20    18    20    1
   21    13    21    1
   22    21    22    1
@<TRIPOS>SUBSTRUCTURE
       1 MOL1            1 RESIDUE      1      MOL     
@<SCITEGIC>MOL_PROPERTY
VConf Rank
SciTegic.value.IntegerValue
831

@<SCITEGIC>MOL_PROPERTY
Conf_Id
SciTegic.value.IntegerValue
99

@<SCITEGIC>MOL_PROPERTY
Delta U+W
SciTegic.value.DoubleValue
-3.852

@<SCITEGIC>MOL_PROPERTY
U+W
SciTegic.value.DoubleValue
2.572

@<SCITEGIC>MOL_PROPERTY
Grad RMS
SciTegic.value.DoubleValue
0.000000

@<SCITEGIC>MOL_PROPERTY
U
SciTegic.value.DoubleValue
3.922

@<SCITEGIC>MOL_PROPERTY
W
SciTegic.value.DoubleValue
-1.350

@<SCITEGIC>MOL_PROPERTY
W(PB)
SciTegic.value.DoubleValue
-3.345

@<SCITEGIC>MOL_PROPERTY
W(SA)
SciTegic.value.DoubleValue
1.995

@<SCITEGIC>MOL_PROPERTY
Valence
SciTegic.value.DoubleValue
12.571

@<SCITEGIC>MOL_PROPERTY
Coulomb
SciTegic.value.DoubleValue
-10.581

@<SCITEGIC>MOL_PROPERTY
VdW
SciTegic.value.DoubleValue
1.932

@<SCITEGIC>MOL_PROPERTY
VdW6
SciTegic.value.DoubleValue
-10.483

@<SCITEGIC>MOL_PROPERTY
VdW12
SciTegic.value.DoubleValue
12.415

@<SCITEGIC>MOL_PROPERTY
Bond
SciTegic.value.DoubleValue
0.268

@<SCITEGIC>MOL_PROPERTY
Angle
SciTegic.value.DoubleValue
3.728

@<SCITEGIC>MOL_PROPERTY
Pdih
SciTegic.value.DoubleValue
8.575

@<SCITEGIC>MOL_PROPERTY
Idih
SciTegic.value.DoubleValue
0.000

@<SCITEGIC>MOL_PROPERTY
Tether
SciTegic.value.DoubleValue
0.000

@<TRIPOS>MOLECULE
guest-5_confgen4.mol2 : confsearch ligand conformer 832
          22          22           1
SMALL
USER_CHARGES
 
@<TRIPOS>ATOM
       1    C1      18.987142   18.433490   22.173767 C.3        1 MOL1        -0.1685
       2    H1      17.963978   18.089427   21.968714 H          1 MOL1         0.0832
       3    H2      19.631265   17.589729   21.892290 H          1 MOL1         0.0832
       4    C2      19.100984   18.708833   23.701863 C.3        1 MOL1        -0.1685
       5    H3      18.127142   18.483792   24.158240 H          1 MOL1         0.0832
       6    H4      19.800557   17.999020   24.163183 H          1 MOL1         0.0832
       7    C3      19.488151   20.154842   24.104246 C.3        1 MOL1        -0.1685
       8    H5      19.343906   20.263282   25.187833 H          1 MOL1         0.0832
       9    H6      18.780139   20.865129   23.659521 H          1 MOL1         0.0832
      10    C4      20.943361   20.587717   23.772866 C.3        1 MOL1        -0.1761
      11    H7      20.973967   21.684109   23.731280 H          1 MOL1         0.0832
      12    H8      21.588248   20.311402   24.617713 H          1 MOL1         0.0832
      13    C5      21.597627   20.030010   22.484822 C.3        1 MOL1         0.1218
      14    H9      22.511364   20.616265   22.311138 H          1 MOL1         0.0789
      15    C6      20.751300   20.122232   21.191234 C.3        1 MOL1        -0.1761
      16    H10     20.759393   21.163561   20.844377 H          1 MOL1         0.0832
      17    H11     21.275212   19.552861   20.411920 H          1 MOL1         0.0832
      18    C7      19.275210   19.639267   21.243243 C.3        1 MOL1        -0.1685
      19    H12     18.620359   20.477943   21.510374 H          1 MOL1         0.0832
      20    H13     18.974167   19.368474   20.222082 H          1 MOL1         0.0832
      21    O1      21.997037   18.685223   22.697565 O.3        1 MOL1        -0.5509
      22    H14     21.155361   18.209295   22.845915 H          1 MOL1         0.3779
@<TRIPOS>BOND
    1     1     2    1
    2     1     3    1
    3     1     4    1
    4     4     5    1
    5     4     6    1
    6     4     7    1
    7     7     8    1
    8     7     9    1
    9     7    10    1
   10    10    11    1
   11    10    12    1
   12    10    13    1
   13    13    14    1
   14    13    15    1
   15    15    16    1
   16    15    17    1
   17     1    18    1
   18    15    18    1
   19    18    19    1
   20    18    20    1
   21    13    21    1
   22    21    22    1
@<TRIPOS>SUBSTRUCTURE
       1 MOL1            1 RESIDUE      1      MOL     
@<SCITEGIC>MOL_PROPERTY
VConf Rank
SciTegic.value.IntegerValue
832

@<SCITEGIC>MOL_PROPERTY
Conf_Id
SciTegic.value.IntegerValue
98

@<SCITEGIC>MOL_PROPERTY
Delta U+W
SciTegic.value.DoubleValue
0.930

@<SCITEGIC>MOL_PROPERTY
U+W
SciTegic.value.DoubleValue
7.353

@<SCITEGIC>MOL_PROPERTY
Grad RMS
SciTegic.value.DoubleValue
0.000000

@<SCITEGIC>MOL_PROPERTY
U
SciTegic.value.DoubleValue
8.455

@<SCITEGIC>MOL_PROPERTY
W
SciTegic.value.DoubleValue
-1.102

@<SCITEGIC>MOL_PROPERTY
W(PB)
SciTegic.value.DoubleValue
-3.101

@<SCITEGIC>MOL_PROPERTY
W(SA)
SciTegic.value.DoubleValue
2.000

@<SCITEGIC>MOL_PROPERTY
Valence
SciTegic.value.DoubleValue
15.601

@<SCITEGIC>MOL_PROPERTY
Coulomb
SciTegic.value.DoubleValue
-10.573

@<SCITEGIC>MOL_PROPERTY
VdW
SciTegic.value.DoubleValue
3.427

@<SCITEGIC>MOL_PROPERTY
VdW6
SciTegic.value.DoubleValue
-11.360

@<SCITEGIC>MOL_PROPERTY
VdW12
SciTegic.value.DoubleValue
14.787

@<SCITEGIC>MOL_PROPERTY
Bond
SciTegic.value.DoubleValue
0.471

@<SCITEGIC>MOL_PROPERTY
Angle
SciTegic.value.DoubleValue
5.445

@<SCITEGIC>MOL_PROPERTY
Pdih
SciTegic.value.DoubleValue
9.685

@<SCITEGIC>MOL_PROPERTY
Idih
SciTegic.value.DoubleValue
0.000

@<SCITEGIC>MOL_PROPERTY
Tether
SciTegic.value.DoubleValue
0.000

@<TRIPOS>MOLECULE
guest-5_confgen4.mol2 : confsearch ligand conformer 833
          22          22           1
SMALL
USER_CHARGES
 
@<TRIPOS>ATOM
       1    C1      18.347289   19.641121   22.256079 C.3        1 MOL1        -0.1685
       2    H1      18.445674   18.647261   21.800729 H          1 MOL1         0.0832
       3    H2      17.283688   19.896778   22.155551 H          1 MOL1         0.0832
       4    C2      19.180357   20.670922   21.451302 C.3        1 MOL1        -0.1685
       5    H3      18.801580   20.669056   20.420089 H          1 MOL1         0.0832
       6    H4      18.988012   21.681313   21.836966 H          1 MOL1         0.0832
       7    C3      20.714114   20.426098   21.403389 C.3        1 MOL1        -0.1685
       8    H5      21.226926   21.116444   22.085636 H          1 MOL1         0.0832
       9    H6      21.073430   20.699397   20.401973 H          1 MOL1         0.0832
      10    C4      21.157176   18.971071   21.710478 C.3        1 MOL1        -0.1761
      11    H7      20.594633   18.280732   21.069696 H          1 MOL1         0.0832
      12    H8      22.203780   18.855971   21.397815 H          1 MOL1         0.0832
      13    C5      21.021470   18.517490   23.193623 C.3        1 MOL1         0.1218
      14    H9      20.555426   17.521599   23.202058 H          1 MOL1         0.0789
      15    C6      20.190464   19.447542   24.112694 C.3        1 MOL1        -0.1761
      16    H10     20.270818   19.089195   25.147193 H          1 MOL1         0.0832
      17    H11     20.635291   20.449847   24.122798 H          1 MOL1         0.0832
      18    C7      18.685087   19.554324   23.763062 C.3        1 MOL1        -0.1685
      19    H12     18.160514   18.684362   24.181157 H          1 MOL1         0.0832
      20    H13     18.269724   20.432052   24.276618 H          1 MOL1         0.0832
      21    O1      22.325186   18.417196   23.755265 O.3        1 MOL1        -0.5509
      22    H14     22.214616   18.076030   24.667164 H          1 MOL1         0.3779
@<TRIPOS>BOND
    1     1     2    1
    2     1     3    1
    3     1     4    1
    4     4     5    1
    5     4     6    1
    6     4     7    1
    7     7     8    1
    8     7     9    1
    9     7    10    1
   10    10    11    1
   11    10    12    1
   12    10    13    1
   13    13    14    1
   14    13    15    1
   15    15    16    1
   16    15    17    1
   17     1    18    1
   18    15    18    1
   19    18    19    1
   20    18    20    1
   21    13    21    1
   22    21    22    1
@<TRIPOS>SUBSTRUCTURE
       1 MOL1            1 RESIDUE      1      MOL     
@<SCITEGIC>MOL_PROPERTY
VConf Rank
SciTegic.value.IntegerValue
833

@<SCITEGIC>MOL_PROPERTY
Conf_Id
SciTegic.value.IntegerValue
141

@<SCITEGIC>MOL_PROPERTY
Delta U+W
SciTegic.value.DoubleValue
0.000

@<SCITEGIC>MOL_PROPERTY
U+W
SciTegic.value.DoubleValue
6.423

@<SCITEGIC>MOL_PROPERTY
Grad RMS
SciTegic.value.DoubleValue
0.000000

@<SCITEGIC>MOL_PROPERTY
U
SciTegic.value.DoubleValue
8.781

@<SCITEGIC>MOL_PROPERTY
W
SciTegic.value.DoubleValue
-2.358

@<SCITEGIC>MOL_PROPERTY
W(PB)
SciTegic.value.DoubleValue
-4.373

@<SCITEGIC>MOL_PROPERTY
W(SA)
SciTegic.value.DoubleValue
2.015

@<SCITEGIC>MOL_PROPERTY
Valence
SciTegic.value.DoubleValue
13.328

@<SCITEGIC>MOL_PROPERTY
Coulomb
SciTegic.value.DoubleValue
-8.387

@<SCITEGIC>MOL_PROPERTY
VdW
SciTegic.value.DoubleValue
3.840

@<SCITEGIC>MOL_PROPERTY
VdW6
SciTegic.value.DoubleValue
-9.744

@<SCITEGIC>MOL_PROPERTY
VdW12
SciTegic.value.DoubleValue
13.584

@<SCITEGIC>MOL_PROPERTY
Bond
SciTegic.value.DoubleValue
0.436

@<SCITEGIC>MOL_PROPERTY
Angle
SciTegic.value.DoubleValue
3.478

@<SCITEGIC>MOL_PROPERTY
Pdih
SciTegic.value.DoubleValue
9.415

@<SCITEGIC>MOL_PROPERTY
Idih
SciTegic.value.DoubleValue
0.000

@<SCITEGIC>MOL_PROPERTY
Tether
SciTegic.value.DoubleValue
0.000

@<TRIPOS>MOLECULE
guest-5_confgen4.mol2 : confsearch ligand conformer 834
          22          22           1
SMALL
USER_CHARGES
 
@<TRIPOS>ATOM
       1    C1      21.517888   20.359598   22.276015 C.3        1 MOL1        -0.1685
       2    H1      21.301040   21.132167   23.026163 H          1 MOL1         0.0832
       3    H2      22.522396   20.583190   21.891469 H          1 MOL1         0.0832
       4    C2      20.529721   20.448665   21.088056 C.3        1 MOL1        -0.1685
       5    H3      20.732955   21.374366   20.532512 H          1 MOL1         0.0832
       6    H4      20.730510   19.628641   20.385116 H          1 MOL1         0.0832
       7    C3      19.032523   20.436552   21.473519 C.3        1 MOL1        -0.1685
       8    H5      18.440677   20.435556   20.548022 H          1 MOL1         0.0832
       9    H6      18.780882   21.373528   21.988992 H          1 MOL1         0.0832
      10    C4      18.590894   19.234574   22.343802 C.3        1 MOL1        -0.1761
      11    H7      17.493134   19.215867   22.351425 H          1 MOL1         0.0832
      12    H8      18.909331   18.288346   21.887461 H          1 MOL1         0.0832
      13    C5      19.101117   19.332375   23.799046 C.3        1 MOL1         0.1218
      14    H9      19.140715   20.394822   24.079194 H          1 MOL1         0.0789
      15    C6      20.499908   18.717075   24.031607 C.3        1 MOL1        -0.1761
      16    H10     20.885237   19.118591   24.977734 H          1 MOL1         0.0832
      17    H11     20.399826   17.633962   24.183136 H          1 MOL1         0.0832
      18    C7      21.555813   18.955465   22.923329 C.3        1 MOL1        -0.1685
      19    H12     22.550019   18.791002   23.360742 H          1 MOL1         0.0832
      20    H13     21.448052   18.190363   22.142485 H          1 MOL1         0.0832
      21    O1      18.179229   18.666868   24.653705 O.3        1 MOL1        -0.5509
      22    H14     17.317191   19.120934   24.547242 H          1 MOL1         0.3779
@<TRIPOS>BOND
    1     1     2    1
    2     1     3    1
    3     1     4    1
    4     4     5    1
    5     4     6    1
    6     4     7    1
    7     7     8    1
    8     7     9    1
    9     7    10    1
   10    10    11    1
   11    10    12    1
   12    10    13    1
   13    13    14    1
   14    13    15    1
   15    15    16    1
   16    15    17    1
   17     1    18    1
   18    15    18    1
   19    18    19    1
   20    18    20    1
   21    13    21    1
   22    21    22    1
@<TRIPOS>SUBSTRUCTURE
       1 MOL1            1 RESIDUE      1      MOL     
@<SCITEGIC>MOL_PROPERTY
VConf Rank
SciTegic.value.IntegerValue
834

@<SCITEGIC>MOL_PROPERTY
Conf_Id
SciTegic.value.IntegerValue
144

@<SCITEGIC>MOL_PROPERTY
Delta U+W
SciTegic.value.DoubleValue
-3.291

@<SCITEGIC>MOL_PROPERTY
U+W
SciTegic.value.DoubleValue
3.132

@<SCITEGIC>MOL_PROPERTY
Grad RMS
SciTegic.value.DoubleValue
0.000000

@<SCITEGIC>MOL_PROPERTY
U
SciTegic.value.DoubleValue
5.411

@<SCITEGIC>MOL_PROPERTY
W
SciTegic.value.DoubleValue
-2.279

@<SCITEGIC>MOL_PROPERTY
W(PB)
SciTegic.value.DoubleValue
-4.300

@<SCITEGIC>MOL_PROPERTY
W(SA)
SciTegic.value.DoubleValue
2.021

@<SCITEGIC>MOL_PROPERTY
Valence
SciTegic.value.DoubleValue
11.909

@<SCITEGIC>MOL_PROPERTY
Coulomb
SciTegic.value.DoubleValue
-8.733

@<SCITEGIC>MOL_PROPERTY
VdW
SciTegic.value.DoubleValue
2.236

@<SCITEGIC>MOL_PROPERTY
VdW6
SciTegic.value.DoubleValue
-8.936

@<SCITEGIC>MOL_PROPERTY
VdW12
SciTegic.value.DoubleValue
11.172

@<SCITEGIC>MOL_PROPERTY
Bond
SciTegic.value.DoubleValue
0.223

@<SCITEGIC>MOL_PROPERTY
Angle
SciTegic.value.DoubleValue
2.457

@<SCITEGIC>MOL_PROPERTY
Pdih
SciTegic.value.DoubleValue
9.228

@<SCITEGIC>MOL_PROPERTY
Idih
SciTegic.value.DoubleValue
0.000

@<SCITEGIC>MOL_PROPERTY
Tether
SciTegic.value.DoubleValue
0.000

@<TRIPOS>MOLECULE
guest-5_confgen4.mol2 : confsearch ligand conformer 835
          22          22           1
SMALL
USER_CHARGES
 
@<TRIPOS>ATOM
       1    C1      18.632659   20.121482   23.638847 C.3        1 MOL1        -0.1685
       2    H1      18.020525   20.513796   24.462420 H          1 MOL1         0.0832
       3    H2      17.944554   19.963556   22.797269 H          1 MOL1         0.0832
       4    C2      19.254703   18.782912   24.100763 C.3        1 MOL1        -0.1685
       5    H3      20.155485   18.984624   24.696312 H          1 MOL1         0.0832
       6    H4      18.556014   18.284251   24.786451 H          1 MOL1         0.0832
       7    C3      19.595825   17.790415   22.962999 C.3        1 MOL1        -0.1685
       8    H5      18.691141   17.226583   22.697376 H          1 MOL1         0.0832
       9    H6      20.304417   17.048844   23.356683 H          1 MOL1         0.0832
      10    C4      20.178390   18.405637   21.666750 C.3        1 MOL1        -0.1761
      11    H7      20.670380   17.600462   21.104515 H          1 MOL1         0.0832
      12    H8      19.354065   18.752388   21.030239 H          1 MOL1         0.0832
      13    C5      21.176117   19.564781   21.887024 C.3        1 MOL1         0.1218
      14    H9      21.755100   19.383104   22.803671 H          1 MOL1         0.0789
      15    C6      20.476010   20.939633   21.979821 C.3        1 MOL1        -0.1761
      16    H10     21.234220   21.727828   21.879835 H          1 MOL1         0.0832
      17    H11     19.796155   21.062850   21.126767 H          1 MOL1         0.0832
      18    C7      19.694977   21.191861   23.291340 C.3        1 MOL1        -0.1685
      19    H12     20.404243   21.286047   24.125004 H          1 MOL1         0.0832
      20    H13     19.196145   22.167341   23.211386 H          1 MOL1         0.0832
      21    O1      22.067799   19.603061   20.780837 O.3        1 MOL1        -0.5509
      22    H14     21.517150   19.764171   19.987118 H          1 MOL1         0.3779
@<TRIPOS>BOND
    1     1     2    1
    2     1     3    1
    3     1     4    1
    4     4     5    1
    5     4     6    1
    6     4     7    1
    7     7     8    1
    8     7     9    1
    9     7    10    1
   10    10    11    1
   11    10    12    1
   12    10    13    1
   13    13    14    1
   14    13    15    1
   15    15    16    1
   16    15    17    1
   17     1    18    1
   18    15    18    1
   19    18    19    1
   20    18    20    1
   21    13    21    1
   22    21    22    1
@<TRIPOS>SUBSTRUCTURE
       1 MOL1            1 RESIDUE      1      MOL     
@<SCITEGIC>MOL_PROPERTY
VConf Rank
SciTegic.value.IntegerValue
835

@<SCITEGIC>MOL_PROPERTY
Conf_Id
SciTegic.value.IntegerValue
76

@<SCITEGIC>MOL_PROPERTY
Delta U+W
SciTegic.value.DoubleValue
-3.175

@<SCITEGIC>MOL_PROPERTY
U+W
SciTegic.value.DoubleValue
3.248

@<SCITEGIC>MOL_PROPERTY
Grad RMS
SciTegic.value.DoubleValue
0.000000

@<SCITEGIC>MOL_PROPERTY
U
SciTegic.value.DoubleValue
5.336

@<SCITEGIC>MOL_PROPERTY
W
SciTegic.value.DoubleValue
-2.088

@<SCITEGIC>MOL_PROPERTY
W(PB)
SciTegic.value.DoubleValue
-4.098

@<SCITEGIC>MOL_PROPERTY
W(SA)
SciTegic.value.DoubleValue
2.010

@<SCITEGIC>MOL_PROPERTY
Valence
SciTegic.value.DoubleValue
12.390

@<SCITEGIC>MOL_PROPERTY
Coulomb
SciTegic.value.DoubleValue
-9.270

@<SCITEGIC>MOL_PROPERTY
VdW
SciTegic.value.DoubleValue
2.216

@<SCITEGIC>MOL_PROPERTY
VdW6
SciTegic.value.DoubleValue
-8.967

@<SCITEGIC>MOL_PROPERTY
VdW12
SciTegic.value.DoubleValue
11.183

@<SCITEGIC>MOL_PROPERTY
Bond
SciTegic.value.DoubleValue
0.218

@<SCITEGIC>MOL_PROPERTY
Angle
SciTegic.value.DoubleValue
2.426

@<SCITEGIC>MOL_PROPERTY
Pdih
SciTegic.value.DoubleValue
9.745

@<SCITEGIC>MOL_PROPERTY
Idih
SciTegic.value.DoubleValue
0.000

@<SCITEGIC>MOL_PROPERTY
Tether
SciTegic.value.DoubleValue
0.000

@<TRIPOS>MOLECULE
guest-5_confgen4.mol2 : confsearch ligand conformer 836
          22          22           1
SMALL
USER_CHARGES
 
@<TRIPOS>ATOM
       1    C1      18.982878   20.516034   21.496259 C.3        1 MOL1        -0.1685
       2    H1      17.961533   20.264776   21.179235 H          1 MOL1         0.0832
       3    H2      19.207306   21.487896   21.035899 H          1 MOL1         0.0832
       4    C2      19.945251   19.452147   20.916037 C.3        1 MOL1        -0.1685
       5    H3      19.455494   18.469059   20.928550 H          1 MOL1         0.0832
       6    H4      20.108833   19.685132   19.855027 H          1 MOL1         0.0832
       7    C3      21.315767   19.353198   21.625569 C.3        1 MOL1        -0.1685
       8    H5      21.674186   20.346129   21.929639 H          1 MOL1         0.0832
       9    H6      22.048443   18.973642   20.900714 H          1 MOL1         0.0832
      10    C4      21.298021   18.380399   22.831980 C.3        1 MOL1        -0.1761
      11    H7      20.869009   17.421054   22.515566 H          1 MOL1         0.0832
      12    H8      22.334464   18.159405   23.118965 H          1 MOL1         0.0832
      13    C5      20.548709   18.869047   24.092477 C.3        1 MOL1         0.1218
      14    H9      20.474273   18.007071   24.771118 H          1 MOL1         0.0789
      15    C6      19.107213   19.380531   23.845569 C.3        1 MOL1        -0.1761
      16    H10     18.511155   18.594912   23.363495 H          1 MOL1         0.0832
      17    H11     18.641936   19.545270   24.825959 H          1 MOL1         0.0832
      18    C7      19.005362   20.697413   23.032755 C.3        1 MOL1        -0.1685
      19    H12     18.085347   21.222167   23.323664 H          1 MOL1         0.0832
      20    H13     19.825107   21.374131   23.307550 H          1 MOL1         0.0832
      21    O1      21.321755   19.876055   24.737735 O.3        1 MOL1        -0.5509
      22    H14     20.790177   20.192339   25.496466 H          1 MOL1         0.3779
@<TRIPOS>BOND
    1     1     2    1
    2     1     3    1
    3     1     4    1
    4     4     5    1
    5     4     6    1
    6     4     7    1
    7     7     8    1
    8     7     9    1
    9     7    10    1
   10    10    11    1
   11    10    12    1
   12    10    13    1
   13    13    14    1
   14    13    15    1
   15    15    16    1
   16    15    17    1
   17     1    18    1
   18    15    18    1
   19    18    19    1
   20    18    20    1
   21    13    21    1
   22    21    22    1
@<TRIPOS>SUBSTRUCTURE
       1 MOL1            1 RESIDUE      1      MOL     
@<SCITEGIC>MOL_PROPERTY
VConf Rank
SciTegic.value.IntegerValue
836

@<SCITEGIC>MOL_PROPERTY
Conf_Id
SciTegic.value.IntegerValue
95

@<SCITEGIC>MOL_PROPERTY
Delta U+W
SciTegic.value.DoubleValue
-2.289

@<SCITEGIC>MOL_PROPERTY
U+W
SciTegic.value.DoubleValue
4.134

@<SCITEGIC>MOL_PROPERTY
Grad RMS
SciTegic.value.DoubleValue
0.000000

@<SCITEGIC>MOL_PROPERTY
U
SciTegic.value.DoubleValue
6.373

@<SCITEGIC>MOL_PROPERTY
W
SciTegic.value.DoubleValue
-2.240

@<SCITEGIC>MOL_PROPERTY
W(PB)
SciTegic.value.DoubleValue
-4.254

@<SCITEGIC>MOL_PROPERTY
W(SA)
SciTegic.value.DoubleValue
2.015

@<SCITEGIC>MOL_PROPERTY
Valence
SciTegic.value.DoubleValue
12.093

@<SCITEGIC>MOL_PROPERTY
Coulomb
SciTegic.value.DoubleValue
-8.058

@<SCITEGIC>MOL_PROPERTY
VdW
SciTegic.value.DoubleValue
2.339

@<SCITEGIC>MOL_PROPERTY
VdW6
SciTegic.value.DoubleValue
-9.683

@<SCITEGIC>MOL_PROPERTY
VdW12
SciTegic.value.DoubleValue
12.022

@<SCITEGIC>MOL_PROPERTY
Bond
SciTegic.value.DoubleValue
0.268

@<SCITEGIC>MOL_PROPERTY
Angle
SciTegic.value.DoubleValue
3.005

@<SCITEGIC>MOL_PROPERTY
Pdih
SciTegic.value.DoubleValue
8.820

@<SCITEGIC>MOL_PROPERTY
Idih
SciTegic.value.DoubleValue
0.000

@<SCITEGIC>MOL_PROPERTY
Tether
SciTegic.value.DoubleValue
0.000

@<TRIPOS>MOLECULE
guest-5_confgen4.mol2 : confsearch ligand conformer 837
          22          22           1
SMALL
USER_CHARGES
 
@<TRIPOS>ATOM
       1    C1      21.301872   19.097126   24.045036 C.3        1 MOL1        -0.1685
       2    H1      21.129846   18.446551   24.913318 H          1 MOL1         0.0832
       3    H2      22.368881   19.356817   24.074078 H          1 MOL1         0.0832
       4    C2      20.467221   20.386394   24.233378 C.3        1 MOL1        -0.1685
       5    H3      19.513974   20.137476   24.719011 H          1 MOL1         0.0832
       6    H4      20.998434   21.033598   24.944532 H          1 MOL1         0.0832
       7    C3      20.191954   21.184080   22.937445 C.3        1 MOL1        -0.1685
       8    H5      21.062974   21.160083   22.268440 H          1 MOL1         0.0832
       9    H6      20.046467   22.237860   23.210955 H          1 MOL1         0.0832
      10    C4      18.914485   20.706413   22.201772 C.3        1 MOL1        -0.1761
      11    H7      18.083953   20.660079   22.917989 H          1 MOL1         0.0832
      12    H8      18.624702   21.470943   21.469308 H          1 MOL1         0.0832
      13    C5      19.015282   19.346927   21.472819 C.3        1 MOL1         0.1218
      14    H9      17.995830   19.077293   21.161185 H          1 MOL1         0.0789
      15    C6      19.551169   18.176450   22.334877 C.3        1 MOL1        -0.1761
      16    H10     18.920657   18.046562   23.223737 H          1 MOL1         0.0832
      17    H11     19.431259   17.258281   21.745456 H          1 MOL1         0.0832
      18    C7      21.041101   18.291326   22.750023 C.3        1 MOL1        -0.1685
      19    H12     21.445748   17.280574   22.894446 H          1 MOL1         0.0832
      20    H13     21.625762   18.722486   21.926680 H          1 MOL1         0.0832
      21    O1      19.812048   19.496975   20.301690 O.3        1 MOL1        -0.5509
      22    H14     19.442717   20.255522   19.805317 H          1 MOL1         0.3779
@<TRIPOS>BOND
    1     1     2    1
    2     1     3    1
    3     1     4    1
    4     4     5    1
    5     4     6    1
    6     4     7    1
    7     7     8    1
    8     7     9    1
    9     7    10    1
   10    10    11    1
   11    10    12    1
   12    10    13    1
   13    13    14    1
   14    13    15    1
   15    15    16    1
   16    15    17    1
   17     1    18    1
   18    15    18    1
   19    18    19    1
   20    18    20    1
   21    13    21    1
   22    21    22    1
@<TRIPOS>SUBSTRUCTURE
       1 MOL1            1 RESIDUE      1      MOL     
@<SCITEGIC>MOL_PROPERTY
VConf Rank
SciTegic.value.IntegerValue
837

@<SCITEGIC>MOL_PROPERTY
Conf_Id
SciTegic.value.IntegerValue
41

@<SCITEGIC>MOL_PROPERTY
Delta U+W
SciTegic.value.DoubleValue
-2.114

@<SCITEGIC>MOL_PROPERTY
U+W
SciTegic.value.DoubleValue
4.310

@<SCITEGIC>MOL_PROPERTY
Grad RMS
SciTegic.value.DoubleValue
0.000000

@<SCITEGIC>MOL_PROPERTY
U
SciTegic.value.DoubleValue
6.598

@<SCITEGIC>MOL_PROPERTY
W
SciTegic.value.DoubleValue
-2.289

@<SCITEGIC>MOL_PROPERTY
W(PB)
SciTegic.value.DoubleValue
-4.294

@<SCITEGIC>MOL_PROPERTY
W(SA)
SciTegic.value.DoubleValue
2.005

@<SCITEGIC>MOL_PROPERTY
Valence
SciTegic.value.DoubleValue
12.082

@<SCITEGIC>MOL_PROPERTY
Coulomb
SciTegic.value.DoubleValue
-7.801

@<SCITEGIC>MOL_PROPERTY
VdW
SciTegic.value.DoubleValue
2.317

@<SCITEGIC>MOL_PROPERTY
VdW6
SciTegic.value.DoubleValue
-9.658

@<SCITEGIC>MOL_PROPERTY
VdW12
SciTegic.value.DoubleValue
11.975

@<SCITEGIC>MOL_PROPERTY
Bond
SciTegic.value.DoubleValue
0.267

@<SCITEGIC>MOL_PROPERTY
Angle
SciTegic.value.DoubleValue
3.051

@<SCITEGIC>MOL_PROPERTY
Pdih
SciTegic.value.DoubleValue
8.764

@<SCITEGIC>MOL_PROPERTY
Idih
SciTegic.value.DoubleValue
0.000

@<SCITEGIC>MOL_PROPERTY
Tether
SciTegic.value.DoubleValue
0.000

@<TRIPOS>MOLECULE
guest-5_confgen4.mol2 : confsearch ligand conformer 838
          22          22           1
SMALL
USER_CHARGES
 
@<TRIPOS>ATOM
       1    C1      20.533293   21.141939   22.656620 C.3        1 MOL1        -0.1685
       2    H1      20.636084   22.226987   22.793198 H          1 MOL1         0.0832
       3    H2      21.479901   20.795499   22.219484 H          1 MOL1         0.0832
       4    C2      19.359267   20.896052   21.682664 C.3        1 MOL1        -0.1685
       5    H3      18.416049   21.191127   22.162092 H          1 MOL1         0.0832
       6    H4      19.477345   21.560611   20.816074 H          1 MOL1         0.0832
       7    C3      19.243209   19.444939   21.166890 C.3        1 MOL1        -0.1685
       8    H5      20.093348   19.222058   20.508500 H          1 MOL1         0.0832
       9    H6      18.352320   19.383345   20.527634 H          1 MOL1         0.0832
      10    C4      19.127851   18.359383   22.271175 C.3        1 MOL1        -0.1761
      11    H7      18.327861   18.621625   22.975095 H          1 MOL1         0.0832
      12    H8      18.804500   17.428079   21.788784 H          1 MOL1         0.0832
      13    C5      20.430562   18.041819   23.049718 C.3        1 MOL1         0.1218
      14    H9      20.274508   17.071431   23.542945 H          1 MOL1         0.0789
      15    C6      20.807698   19.041123   24.174129 C.3        1 MOL1        -0.1761
      16    H10     20.424564   18.643678   25.122975 H          1 MOL1         0.0832
      17    H11     21.899607   19.056015   24.288075 H          1 MOL1         0.0832
      18    C7      20.303532   20.499682   24.042526 C.3        1 MOL1        -0.1685
      19    H12     19.237990   20.551078   24.304049 H          1 MOL1         0.0832
      20    H13     20.821829   21.103589   24.799720 H          1 MOL1         0.0832
      21    O1      21.526054   17.896553   22.149875 O.3        1 MOL1        -0.5509
      22    H14     22.306515   17.659020   22.690586 H          1 MOL1         0.3779
@<TRIPOS>BOND
    1     1     2    1
    2     1     3    1
    3     1     4    1
    4     4     5    1
    5     4     6    1
    6     4     7    1
    7     7     8    1
    8     7     9    1
    9     7    10    1
   10    10    11    1
   11    10    12    1
   12    10    13    1
   13    13    14    1
   14    13    15    1
   15    15    16    1
   16    15    17    1
   17     1    18    1
   18    15    18    1
   19    18    19    1
   20    18    20    1
   21    13    21    1
   22    21    22    1
@<TRIPOS>SUBSTRUCTURE
       1 MOL1            1 RESIDUE      1      MOL     
@<SCITEGIC>MOL_PROPERTY
VConf Rank
SciTegic.value.IntegerValue
838

@<SCITEGIC>MOL_PROPERTY
Conf_Id
SciTegic.value.IntegerValue
104

@<SCITEGIC>MOL_PROPERTY
Delta U+W
SciTegic.value.DoubleValue
-1.172

@<SCITEGIC>MOL_PROPERTY
U+W
SciTegic.value.DoubleValue
5.252

@<SCITEGIC>MOL_PROPERTY
Grad RMS
SciTegic.value.DoubleValue
0.000000

@<SCITEGIC>MOL_PROPERTY
U
SciTegic.value.DoubleValue
7.482

@<SCITEGIC>MOL_PROPERTY
W
SciTegic.value.DoubleValue
-2.230

@<SCITEGIC>MOL_PROPERTY
W(PB)
SciTegic.value.DoubleValue
-4.220

@<SCITEGIC>MOL_PROPERTY
W(SA)
SciTegic.value.DoubleValue
1.990

@<SCITEGIC>MOL_PROPERTY
Valence
SciTegic.value.DoubleValue
12.309

@<SCITEGIC>MOL_PROPERTY
Coulomb
SciTegic.value.DoubleValue
-7.084

@<SCITEGIC>MOL_PROPERTY
VdW
SciTegic.value.DoubleValue
2.258

@<SCITEGIC>MOL_PROPERTY
VdW6
SciTegic.value.DoubleValue
-9.770

@<SCITEGIC>MOL_PROPERTY
VdW12
SciTegic.value.DoubleValue
12.028

@<SCITEGIC>MOL_PROPERTY
Bond
SciTegic.value.DoubleValue
0.284

@<SCITEGIC>MOL_PROPERTY
Angle
SciTegic.value.DoubleValue
3.491

@<SCITEGIC>MOL_PROPERTY
Pdih
SciTegic.value.DoubleValue
8.535

@<SCITEGIC>MOL_PROPERTY
Idih
SciTegic.value.DoubleValue
0.000

@<SCITEGIC>MOL_PROPERTY
Tether
SciTegic.value.DoubleValue
0.000

@<TRIPOS>MOLECULE
guest-5_confgen4.mol2 : confsearch ligand conformer 839
          22          22           1
SMALL
USER_CHARGES
 
@<TRIPOS>ATOM
       1    C1      18.922059   18.404868   22.610366 C.3        1 MOL1        -0.1685
       2    H1      19.459672   17.835905   21.839823 H          1 MOL1         0.0832
       3    H2      17.997536   17.845622   22.808963 H          1 MOL1         0.0832
       4    C2      18.524977   19.804188   22.087188 C.3        1 MOL1        -0.1685
       5    H3      17.628767   19.702281   21.459755 H          1 MOL1         0.0832
       6    H4      18.210758   20.432241   22.931079 H          1 MOL1         0.0832
       7    C3      19.603826   20.540196   21.252891 C.3        1 MOL1        -0.1685
       8    H5      19.421545   21.621351   21.324950 H          1 MOL1         0.0832
       9    H6      19.454511   20.289839   20.193667 H          1 MOL1         0.0832
      10    C4      21.089975   20.250084   21.596982 C.3        1 MOL1        -0.1761
      11    H7      21.381088   19.290674   21.150059 H          1 MOL1         0.0832
      12    H8      21.708144   21.002655   21.090517 H          1 MOL1         0.0832
      13    C5      21.477234   20.238403   23.093603 C.3        1 MOL1         0.1218
      14    H9      22.560211   20.418872   23.152539 H          1 MOL1         0.0789
      15    C6      21.214114   18.874541   23.771035 C.3        1 MOL1        -0.1761
      16    H10     21.746834   18.095152   23.210835 H          1 MOL1         0.0832
      17    H11     21.677232   18.891859   24.766257 H          1 MOL1         0.0832
      18    C7      19.731485   18.455083   23.928064 C.3        1 MOL1        -0.1685
      19    H12     19.711215   17.455643   24.383498 H          1 MOL1         0.0832
      20    H13     19.231298   19.117268   24.647649 H          1 MOL1         0.0832
      21    O1      20.798796   21.270758   23.792270 O.3        1 MOL1        -0.5509
      22    H14     19.852433   21.090038   23.624868 H          1 MOL1         0.3779
@<TRIPOS>BOND
    1     1     2    1
    2     1     3    1
    3     1     4    1
    4     4     5    1
    5     4     6    1
    6     4     7    1
    7     7     8    1
    8     7     9    1
    9     7    10    1
   10    10    11    1
   11    10    12    1
   12    10    13    1
   13    13    14    1
   14    13    15    1
   15    15    16    1
   16    15    17    1
   17     1    18    1
   18    15    18    1
   19    18    19    1
   20    18    20    1
   21    13    21    1
   22    21    22    1
@<TRIPOS>SUBSTRUCTURE
       1 MOL1            1 RESIDUE      1      MOL     
@<SCITEGIC>MOL_PROPERTY
VConf Rank
SciTegic.value.IntegerValue
839

@<SCITEGIC>MOL_PROPERTY
Conf_Id
SciTegic.value.IntegerValue
99

@<SCITEGIC>MOL_PROPERTY
Delta U+W
SciTegic.value.DoubleValue
-3.852

@<SCITEGIC>MOL_PROPERTY
U+W
SciTegic.value.DoubleValue
2.572

@<SCITEGIC>MOL_PROPERTY
Grad RMS
SciTegic.value.DoubleValue
0.000000

@<SCITEGIC>MOL_PROPERTY
U
SciTegic.value.DoubleValue
3.922

@<SCITEGIC>MOL_PROPERTY
W
SciTegic.value.DoubleValue
-1.350

@<SCITEGIC>MOL_PROPERTY
W(PB)
SciTegic.value.DoubleValue
-3.345

@<SCITEGIC>MOL_PROPERTY
W(SA)
SciTegic.value.DoubleValue
1.995

@<SCITEGIC>MOL_PROPERTY
Valence
SciTegic.value.DoubleValue
12.571

@<SCITEGIC>MOL_PROPERTY
Coulomb
SciTegic.value.DoubleValue
-10.581

@<SCITEGIC>MOL_PROPERTY
VdW
SciTegic.value.DoubleValue
1.932

@<SCITEGIC>MOL_PROPERTY
VdW6
SciTegic.value.DoubleValue
-10.483

@<SCITEGIC>MOL_PROPERTY
VdW12
SciTegic.value.DoubleValue
12.415

@<SCITEGIC>MOL_PROPERTY
Bond
SciTegic.value.DoubleValue
0.268

@<SCITEGIC>MOL_PROPERTY
Angle
SciTegic.value.DoubleValue
3.728

@<SCITEGIC>MOL_PROPERTY
Pdih
SciTegic.value.DoubleValue
8.575

@<SCITEGIC>MOL_PROPERTY
Idih
SciTegic.value.DoubleValue
0.000

@<SCITEGIC>MOL_PROPERTY
Tether
SciTegic.value.DoubleValue
0.000

@<TRIPOS>MOLECULE
guest-5_confgen4.mol2 : confsearch ligand conformer 840
          22          22           1
SMALL
USER_CHARGES
 
@<TRIPOS>ATOM
       1    C1      21.184389   20.117775   21.548892 C.3        1 MOL1        -0.1685
       2    H1      22.193037   20.125618   21.113165 H          1 MOL1         0.0832
       3    H2      20.594748   20.788574   20.909823 H          1 MOL1         0.0832
       4    C2      21.282371   20.698630   22.990023 C.3        1 MOL1        -0.1685
       5    H3      22.333401   20.958035   23.178001 H          1 MOL1         0.0832
       6    H4      20.740237   21.651709   23.051543 H          1 MOL1         0.0832
       7    C3      20.815638   19.761387   24.133040 C.3        1 MOL1        -0.1685
       8    H5      21.115076   20.207724   25.091083 H          1 MOL1         0.0832
       9    H6      21.368600   18.815077   24.085076 H          1 MOL1         0.0832
      10    C4      19.289777   19.474564   24.198670 C.3        1 MOL1        -0.1761
      11    H7      19.140165   18.539435   24.753551 H          1 MOL1         0.0832
      12    H8      18.816450   20.253894   24.810718 H          1 MOL1         0.0832
      13    C5      18.503762   19.385538   22.867350 C.3        1 MOL1         0.1218
      14    H9      17.518597   18.959761   23.105969 H          1 MOL1         0.0789
      15    C6      19.124010   18.493546   21.763817 C.3        1 MOL1        -0.1761
      16    H10     18.954605   17.442466   22.030786 H          1 MOL1         0.0832
      17    H11     18.546559   18.655847   20.843922 H          1 MOL1         0.0832
      18    C7      20.631998   18.673956   21.434843 C.3        1 MOL1        -0.1685
      19    H12     21.230466   17.998154   22.058297 H          1 MOL1         0.0832
      20    H13     20.796475   18.320232   20.407929 H          1 MOL1         0.0832
      21    O1      18.283231   20.690761   22.356465 O.3        1 MOL1        -0.5509
      22    H14     19.182279   21.023217   22.161224 H          1 MOL1         0.3779
@<TRIPOS>BOND
    1     1     2    1
    2     1     3    1
    3     1     4    1
    4     4     5    1
    5     4     6    1
    6     4     7    1
    7     7     8    1
    8     7     9    1
    9     7    10    1
   10    10    11    1
   11    10    12    1
   12    10    13    1
   13    13    14    1
   14    13    15    1
   15    15    16    1
   16    15    17    1
   17     1    18    1
   18    15    18    1
   19    18    19    1
   20    18    20    1
   21    13    21    1
   22    21    22    1
@<TRIPOS>SUBSTRUCTURE
       1 MOL1            1 RESIDUE      1      MOL     
@<SCITEGIC>MOL_PROPERTY
VConf Rank
SciTegic.value.IntegerValue
840

@<SCITEGIC>MOL_PROPERTY
Conf_Id
SciTegic.value.IntegerValue
98

@<SCITEGIC>MOL_PROPERTY
Delta U+W
SciTegic.value.DoubleValue
0.930

@<SCITEGIC>MOL_PROPERTY
U+W
SciTegic.value.DoubleValue
7.353

@<SCITEGIC>MOL_PROPERTY
Grad RMS
SciTegic.value.DoubleValue
0.000000

@<SCITEGIC>MOL_PROPERTY
U
SciTegic.value.DoubleValue
8.455

@<SCITEGIC>MOL_PROPERTY
W
SciTegic.value.DoubleValue
-1.102

@<SCITEGIC>MOL_PROPERTY
W(PB)
SciTegic.value.DoubleValue
-3.101

@<SCITEGIC>MOL_PROPERTY
W(SA)
SciTegic.value.DoubleValue
2.000

@<SCITEGIC>MOL_PROPERTY
Valence
SciTegic.value.DoubleValue
15.601

@<SCITEGIC>MOL_PROPERTY
Coulomb
SciTegic.value.DoubleValue
-10.573

@<SCITEGIC>MOL_PROPERTY
VdW
SciTegic.value.DoubleValue
3.427

@<SCITEGIC>MOL_PROPERTY
VdW6
SciTegic.value.DoubleValue
-11.360

@<SCITEGIC>MOL_PROPERTY
VdW12
SciTegic.value.DoubleValue
14.787

@<SCITEGIC>MOL_PROPERTY
Bond
SciTegic.value.DoubleValue
0.471

@<SCITEGIC>MOL_PROPERTY
Angle
SciTegic.value.DoubleValue
5.445

@<SCITEGIC>MOL_PROPERTY
Pdih
SciTegic.value.DoubleValue
9.685

@<SCITEGIC>MOL_PROPERTY
Idih
SciTegic.value.DoubleValue
0.000

@<SCITEGIC>MOL_PROPERTY
Tether
SciTegic.value.DoubleValue
0.000

@<TRIPOS>MOLECULE
guest-5_confgen4.mol2 : confsearch ligand conformer 841
          22          22           1
SMALL
USER_CHARGES
 
@<TRIPOS>ATOM
       1    C1      18.820288   18.694112   21.749512 C.3        1 MOL1        -0.1685
       2    H1      18.246114   18.612561   22.681420 H          1 MOL1         0.0832
       3    H2      18.180580   18.241124   20.979909 H          1 MOL1         0.0832
       4    C2      20.122335   17.860902   21.861747 C.3        1 MOL1        -0.1685
       5    H3      19.832590   16.819548   22.057973 H          1 MOL1         0.0832
       6    H4      20.635968   17.848794   20.890841 H          1 MOL1         0.0832
       7    C3      21.125327   18.299631   22.964547 C.3        1 MOL1        -0.1685
       8    H5      21.965209   18.844458   22.514239 H          1 MOL1         0.0832
       9    H6      21.574610   17.395832   23.398052 H          1 MOL1         0.0832
      10    C4      20.512718   19.148547   24.109868 C.3        1 MOL1        -0.1761
      11    H7      19.635196   18.628394   24.513626 H          1 MOL1         0.0832
      12    H8      21.230652   19.176199   24.940647 H          1 MOL1         0.0832
      13    C5      20.116026   20.607344   23.737824 C.3        1 MOL1         0.1218
      14    H9      19.113262   20.800252   24.145646 H          1 MOL1         0.0789
      15    C6      20.093821   20.937861   22.224376 C.3        1 MOL1        -0.1761
      16    H10     19.922426   22.014781   22.098189 H          1 MOL1         0.0832
      17    H11     21.084708   20.754267   21.791912 H          1 MOL1         0.0832
      18    C7      19.021784   20.186481   21.396140 C.3        1 MOL1        -0.1685
      19    H12     18.057325   20.698863   21.514872 H          1 MOL1         0.0832
      20    H13     19.280005   20.273153   20.331959 H          1 MOL1         0.0832
      21    O1      21.039700   21.496826   24.354933 O.3        1 MOL1        -0.5509
      22    H14     20.734609   22.405872   24.153107 H          1 MOL1         0.3779
@<TRIPOS>BOND
    1     1     2    1
    2     1     3    1
    3     1     4    1
    4     4     5    1
    5     4     6    1
    6     4     7    1
    7     7     8    1
    8     7     9    1
    9     7    10    1
   10    10    11    1
   11    10    12    1
   12    10    13    1
   13    13    14    1
   14    13    15    1
   15    15    16    1
   16    15    17    1
   17     1    18    1
   18    15    18    1
   19    18    19    1
   20    18    20    1
   21    13    21    1
   22    21    22    1
@<TRIPOS>SUBSTRUCTURE
       1 MOL1            1 RESIDUE      1      MOL     
@<SCITEGIC>MOL_PROPERTY
VConf Rank
SciTegic.value.IntegerValue
841

@<SCITEGIC>MOL_PROPERTY
Conf_Id
SciTegic.value.IntegerValue
141

@<SCITEGIC>MOL_PROPERTY
Delta U+W
SciTegic.value.DoubleValue
0.000

@<SCITEGIC>MOL_PROPERTY
U+W
SciTegic.value.DoubleValue
6.423

@<SCITEGIC>MOL_PROPERTY
Grad RMS
SciTegic.value.DoubleValue
0.000000

@<SCITEGIC>MOL_PROPERTY
U
SciTegic.value.DoubleValue
8.781

@<SCITEGIC>MOL_PROPERTY
W
SciTegic.value.DoubleValue
-2.358

@<SCITEGIC>MOL_PROPERTY
W(PB)
SciTegic.value.DoubleValue
-4.373

@<SCITEGIC>MOL_PROPERTY
W(SA)
SciTegic.value.DoubleValue
2.015

@<SCITEGIC>MOL_PROPERTY
Valence
SciTegic.value.DoubleValue
13.328

@<SCITEGIC>MOL_PROPERTY
Coulomb
SciTegic.value.DoubleValue
-8.387

@<SCITEGIC>MOL_PROPERTY
VdW
SciTegic.value.DoubleValue
3.840

@<SCITEGIC>MOL_PROPERTY
VdW6
SciTegic.value.DoubleValue
-9.744

@<SCITEGIC>MOL_PROPERTY
VdW12
SciTegic.value.DoubleValue
13.584

@<SCITEGIC>MOL_PROPERTY
Bond
SciTegic.value.DoubleValue
0.436

@<SCITEGIC>MOL_PROPERTY
Angle
SciTegic.value.DoubleValue
3.478

@<SCITEGIC>MOL_PROPERTY
Pdih
SciTegic.value.DoubleValue
9.415

@<SCITEGIC>MOL_PROPERTY
Idih
SciTegic.value.DoubleValue
0.000

@<SCITEGIC>MOL_PROPERTY
Tether
SciTegic.value.DoubleValue
0.000

@<TRIPOS>MOLECULE
guest-5_confgen4.mol2 : confsearch ligand conformer 842
          22          22           1
SMALL
USER_CHARGES
 
@<TRIPOS>ATOM
       1    C1      20.216275   19.676973   20.926443 C.3        1 MOL1        -0.1685
       2    H1      20.942264   18.857479   21.015768 H          1 MOL1         0.0832
       3    H2      20.130048   19.890522   19.852262 H          1 MOL1         0.0832
       4    C2      20.739696   20.958188   21.619389 C.3        1 MOL1        -0.1685
       5    H3      21.594137   21.342203   21.045527 H          1 MOL1         0.0832
       6    H4      19.969998   21.740363   21.567950 H          1 MOL1         0.0832
       7    C3      21.187508   20.777389   23.088098 C.3        1 MOL1        -0.1685
       8    H5      21.470272   21.762508   23.483589 H          1 MOL1         0.0832
       9    H6      22.101612   20.168746   23.118543 H          1 MOL1         0.0832
      10    C4      20.122789   20.155900   24.024743 C.3        1 MOL1        -0.1761
      11    H7      20.467974   20.294475   25.057762 H          1 MOL1         0.0832
      12    H8      19.172276   20.699169   23.944855 H          1 MOL1         0.0832
      13    C5      19.907713   18.647837   23.765679 C.3        1 MOL1         0.1218
      14    H9      20.865490   18.213761   23.444613 H          1 MOL1         0.0789
      15    C6      18.844866   18.326376   22.690358 C.3        1 MOL1        -0.1761
      16    H10     19.004542   17.289880   22.366276 H          1 MOL1         0.0832
      17    H11     17.846790   18.347975   23.148056 H          1 MOL1         0.0832
      18    C7      18.824124   19.240878   21.440038 C.3        1 MOL1        -0.1685
      19    H12     18.299072   18.705924   20.636938 H          1 MOL1         0.0832
      20    H13     18.215534   20.131779   21.646495 H          1 MOL1         0.0832
      21    O1      19.507139   18.026546   24.980898 O.3        1 MOL1        -0.5509
      22    H14     20.228940   18.177640   25.626492 H          1 MOL1         0.3779
@<TRIPOS>BOND
    1     1     2    1
    2     1     3    1
    3     1     4    1
    4     4     5    1
    5     4     6    1
    6     4     7    1
    7     7     8    1
    8     7     9    1
    9     7    10    1
   10    10    11    1
   11    10    12    1
   12    10    13    1
   13    13    14    1
   14    13    15    1
   15    15    16    1
   16    15    17    1
   17     1    18    1
   18    15    18    1
   19    18    19    1
   20    18    20    1
   21    13    21    1
   22    21    22    1
@<TRIPOS>SUBSTRUCTURE
       1 MOL1            1 RESIDUE      1      MOL     
@<SCITEGIC>MOL_PROPERTY
VConf Rank
SciTegic.value.IntegerValue
842

@<SCITEGIC>MOL_PROPERTY
Conf_Id
SciTegic.value.IntegerValue
144

@<SCITEGIC>MOL_PROPERTY
Delta U+W
SciTegic.value.DoubleValue
-3.291

@<SCITEGIC>MOL_PROPERTY
U+W
SciTegic.value.DoubleValue
3.132

@<SCITEGIC>MOL_PROPERTY
Grad RMS
SciTegic.value.DoubleValue
0.000000

@<SCITEGIC>MOL_PROPERTY
U
SciTegic.value.DoubleValue
5.411

@<SCITEGIC>MOL_PROPERTY
W
SciTegic.value.DoubleValue
-2.279

@<SCITEGIC>MOL_PROPERTY
W(PB)
SciTegic.value.DoubleValue
-4.300

@<SCITEGIC>MOL_PROPERTY
W(SA)
SciTegic.value.DoubleValue
2.021

@<SCITEGIC>MOL_PROPERTY
Valence
SciTegic.value.DoubleValue
11.909

@<SCITEGIC>MOL_PROPERTY
Coulomb
SciTegic.value.DoubleValue
-8.733

@<SCITEGIC>MOL_PROPERTY
VdW
SciTegic.value.DoubleValue
2.236

@<SCITEGIC>MOL_PROPERTY
VdW6
SciTegic.value.DoubleValue
-8.936

@<SCITEGIC>MOL_PROPERTY
VdW12
SciTegic.value.DoubleValue
11.172

@<SCITEGIC>MOL_PROPERTY
Bond
SciTegic.value.DoubleValue
0.223

@<SCITEGIC>MOL_PROPERTY
Angle
SciTegic.value.DoubleValue
2.457

@<SCITEGIC>MOL_PROPERTY
Pdih
SciTegic.value.DoubleValue
9.228

@<SCITEGIC>MOL_PROPERTY
Idih
SciTegic.value.DoubleValue
0.000

@<SCITEGIC>MOL_PROPERTY
Tether
SciTegic.value.DoubleValue
0.000

@<TRIPOS>MOLECULE
guest-5_confgen4.mol2 : confsearch ligand conformer 843
          22          22           1
SMALL
USER_CHARGES
 
@<TRIPOS>ATOM
       1    C1      21.592174   19.733827   22.163317 C.3        1 MOL1        -0.1685
       2    H1      22.525756   20.067688   21.690188 H          1 MOL1         0.0832
       3    H2      21.868484   18.905191   22.829424 H          1 MOL1         0.0832
       4    C2      20.637197   19.249000   21.047505 C.3        1 MOL1        -0.1685
       5    H3      20.123379   20.113267   20.605002 H          1 MOL1         0.0832
       6    H4      21.233441   18.814561   20.233408 H          1 MOL1         0.0832
       7    C3      19.593619   18.194524   21.489034 C.3        1 MOL1        -0.1685
       8    H5      20.057845   17.199192   21.462112 H          1 MOL1         0.0832
       9    H6      18.792527   18.170257   20.737582 H          1 MOL1         0.0832
      10    C4      18.964748   18.395416   22.889857 C.3        1 MOL1        -0.1761
      11    H7      18.040042   17.804050   22.930783 H          1 MOL1         0.0832
      12    H8      19.629004   17.962011   23.648683 H          1 MOL1         0.0832
      13    C5      18.654904   19.863153   23.260449 C.3        1 MOL1         0.1218
      14    H9      18.353282   20.414829   22.358703 H          1 MOL1         0.0789
      15    C6      19.856497   20.572846   23.924894 C.3        1 MOL1        -0.1761
      16    H10     19.503208   21.504549   24.386682 H          1 MOL1         0.0832
      17    H11     20.239342   19.953395   24.746353 H          1 MOL1         0.0832
      18    C7      21.021575   20.925059   22.969774 C.3        1 MOL1        -0.1685
      19    H12     20.698198   21.713494   22.276432 H          1 MOL1         0.0832
      20    H13     21.832713   21.365104   23.565764 H          1 MOL1         0.0832
      21    O1      17.576499   19.872090   24.186286 O.3        1 MOL1        -0.5509
      22    H14     17.881639   19.372124   24.971196 H          1 MOL1         0.3779
@<TRIPOS>BOND
    1     1     2    1
    2     1     3    1
    3     1     4    1
    4     4     5    1
    5     4     6    1
    6     4     7    1
    7     7     8    1
    8     7     9    1
    9     7    10    1
   10    10    11    1
   11    10    12    1
   12    10    13    1
   13    13    14    1
   14    13    15    1
   15    15    16    1
   16    15    17    1
   17     1    18    1
   18    15    18    1
   19    18    19    1
   20    18    20    1
   21    13    21    1
   22    21    22    1
@<TRIPOS>SUBSTRUCTURE
       1 MOL1            1 RESIDUE      1      MOL     
@<SCITEGIC>MOL_PROPERTY
VConf Rank
SciTegic.value.IntegerValue
843

@<SCITEGIC>MOL_PROPERTY
Conf_Id
SciTegic.value.IntegerValue
76

@<SCITEGIC>MOL_PROPERTY
Delta U+W
SciTegic.value.DoubleValue
-3.175

@<SCITEGIC>MOL_PROPERTY
U+W
SciTegic.value.DoubleValue
3.248

@<SCITEGIC>MOL_PROPERTY
Grad RMS
SciTegic.value.DoubleValue
0.000000

@<SCITEGIC>MOL_PROPERTY
U
SciTegic.value.DoubleValue
5.336

@<SCITEGIC>MOL_PROPERTY
W
SciTegic.value.DoubleValue
-2.088

@<SCITEGIC>MOL_PROPERTY
W(PB)
SciTegic.value.DoubleValue
-4.098

@<SCITEGIC>MOL_PROPERTY
W(SA)
SciTegic.value.DoubleValue
2.010

@<SCITEGIC>MOL_PROPERTY
Valence
SciTegic.value.DoubleValue
12.390

@<SCITEGIC>MOL_PROPERTY
Coulomb
SciTegic.value.DoubleValue
-9.270

@<SCITEGIC>MOL_PROPERTY
VdW
SciTegic.value.DoubleValue
2.216

@<SCITEGIC>MOL_PROPERTY
VdW6
SciTegic.value.DoubleValue
-8.967

@<SCITEGIC>MOL_PROPERTY
VdW12
SciTegic.value.DoubleValue
11.183

@<SCITEGIC>MOL_PROPERTY
Bond
SciTegic.value.DoubleValue
0.218

@<SCITEGIC>MOL_PROPERTY
Angle
SciTegic.value.DoubleValue
2.426

@<SCITEGIC>MOL_PROPERTY
Pdih
SciTegic.value.DoubleValue
9.745

@<SCITEGIC>MOL_PROPERTY
Idih
SciTegic.value.DoubleValue
0.000

@<SCITEGIC>MOL_PROPERTY
Tether
SciTegic.value.DoubleValue
0.000

@<TRIPOS>MOLECULE
guest-5_confgen4.mol2 : confsearch ligand conformer 844
          22          22           1
SMALL
USER_CHARGES
 
@<TRIPOS>ATOM
       1    C1      19.403828   18.880233   24.305231 C.3        1 MOL1        -0.1685
       2    H1      19.982303   18.601087   25.196424 H          1 MOL1         0.0832
       3    H2      18.348415   18.758815   24.584829 H          1 MOL1         0.0832
       4    C2      19.741742   17.878191   23.175452 C.3        1 MOL1        -0.1685
       5    H3      20.803724   17.603924   23.234206 H          1 MOL1         0.0832
       6    H4      19.187603   16.949518   23.368533 H          1 MOL1         0.0832
       7    C3      19.415658   18.369592   21.745859 C.3        1 MOL1        -0.1685
       8    H5      18.486991   18.956331   21.733569 H          1 MOL1         0.0832
       9    H6      19.227926   17.488890   21.117040 H          1 MOL1         0.0832
      10    C4      20.580004   19.167166   21.105348 C.3        1 MOL1        -0.1761
      11    H7      21.507443   18.587452   21.196460 H          1 MOL1         0.0832
      12    H8      20.392486   19.255656   20.027192 H          1 MOL1         0.0832
      13    C5      20.823922   20.587379   21.664451 C.3        1 MOL1         0.1218
      14    H9      21.777416   20.935183   21.241392 H          1 MOL1         0.0789
      15    C6      20.949952   20.676205   23.206110 C.3        1 MOL1        -0.1761
      16    H10     21.757222   20.017729   23.551947 H          1 MOL1         0.0832
      17    H11     21.273137   21.695551   23.453645 H          1 MOL1         0.0832
      18    C7      19.647244   20.375894   23.992229 C.3        1 MOL1        -0.1685
      19    H12     19.676770   20.919398   24.946249 H          1 MOL1         0.0832
      20    H13     18.780398   20.780973   23.453777 H          1 MOL1         0.0832
      21    O1      19.792491   21.456054   21.206655 O.3        1 MOL1        -0.5509
      22    H14     19.955546   22.326589   21.623627 H          1 MOL1         0.3779
@<TRIPOS>BOND
    1     1     2    1
    2     1     3    1
    3     1     4    1
    4     4     5    1
    5     4     6    1
    6     4     7    1
    7     7     8    1
    8     7     9    1
    9     7    10    1
   10    10    11    1
   11    10    12    1
   12    10    13    1
   13    13    14    1
   14    13    15    1
   15    15    16    1
   16    15    17    1
   17     1    18    1
   18    15    18    1
   19    18    19    1
   20    18    20    1
   21    13    21    1
   22    21    22    1
@<TRIPOS>SUBSTRUCTURE
       1 MOL1            1 RESIDUE      1      MOL     
@<SCITEGIC>MOL_PROPERTY
VConf Rank
SciTegic.value.IntegerValue
844

@<SCITEGIC>MOL_PROPERTY
Conf_Id
SciTegic.value.IntegerValue
95

@<SCITEGIC>MOL_PROPERTY
Delta U+W
SciTegic.value.DoubleValue
-2.289

@<SCITEGIC>MOL_PROPERTY
U+W
SciTegic.value.DoubleValue
4.134

@<SCITEGIC>MOL_PROPERTY
Grad RMS
SciTegic.value.DoubleValue
0.000000

@<SCITEGIC>MOL_PROPERTY
U
SciTegic.value.DoubleValue
6.373

@<SCITEGIC>MOL_PROPERTY
W
SciTegic.value.DoubleValue
-2.240

@<SCITEGIC>MOL_PROPERTY
W(PB)
SciTegic.value.DoubleValue
-4.254

@<SCITEGIC>MOL_PROPERTY
W(SA)
SciTegic.value.DoubleValue
2.015

@<SCITEGIC>MOL_PROPERTY
Valence
SciTegic.value.DoubleValue
12.093

@<SCITEGIC>MOL_PROPERTY
Coulomb
SciTegic.value.DoubleValue
-8.058

@<SCITEGIC>MOL_PROPERTY
VdW
SciTegic.value.DoubleValue
2.339

@<SCITEGIC>MOL_PROPERTY
VdW6
SciTegic.value.DoubleValue
-9.683

@<SCITEGIC>MOL_PROPERTY
VdW12
SciTegic.value.DoubleValue
12.022

@<SCITEGIC>MOL_PROPERTY
Bond
SciTegic.value.DoubleValue
0.268

@<SCITEGIC>MOL_PROPERTY
Angle
SciTegic.value.DoubleValue
3.005

@<SCITEGIC>MOL_PROPERTY
Pdih
SciTegic.value.DoubleValue
8.820

@<SCITEGIC>MOL_PROPERTY
Idih
SciTegic.value.DoubleValue
0.000

@<SCITEGIC>MOL_PROPERTY
Tether
SciTegic.value.DoubleValue
0.000

@<TRIPOS>MOLECULE
guest-5_confgen4.mol2 : confsearch ligand conformer 845
          22          22           1
SMALL
USER_CHARGES
 
@<TRIPOS>ATOM
       1    C1      20.407829   19.010299   20.935110 C.3        1 MOL1        -0.1685
       2    H1      20.338508   19.574524   19.995111 H          1 MOL1         0.0832
       3    H2      20.771697   18.011754   20.657086 H          1 MOL1         0.0832
       4    C2      18.983977   18.877957   21.526261 C.3        1 MOL1        -0.1685
       5    H3      18.417088   19.796831   21.324302 H          1 MOL1         0.0832
       6    H4      18.460796   18.083774   20.976394 H          1 MOL1         0.0832
       7    C3      18.929220   18.561209   23.038937 C.3        1 MOL1        -0.1685
       8    H5      19.733166   17.869428   23.325173 H          1 MOL1         0.0832
       9    H6      17.987006   18.034663   23.242423 H          1 MOL1         0.0832
      10    C4      18.956556   19.837112   23.917933 C.3        1 MOL1        -0.1761
      11    H7      18.199155   20.541918   23.551207 H          1 MOL1         0.0832
      12    H8      18.637931   19.570247   24.933927 H          1 MOL1         0.0832
      13    C5      20.313040   20.572740   24.010332 C.3        1 MOL1         0.1218
      14    H9      20.121002   21.530968   24.514336 H          1 MOL1         0.0789
      15    C6      20.977632   20.900452   22.649723 C.3        1 MOL1        -0.1761
      16    H10     20.297248   21.504954   22.036416 H          1 MOL1         0.0832
      17    H11     21.843536   21.542052   22.858020 H          1 MOL1         0.0832
      18    C7      21.471825   19.670855   21.843928 C.3        1 MOL1        -0.1685
      19    H12     22.312682   19.980372   21.208808 H          1 MOL1         0.0832
      20    H13     21.886889   18.918760   22.527810 H          1 MOL1         0.0832
      21    O1      21.206331   19.815998   24.821668 O.3        1 MOL1        -0.5509
      22    H14     20.733223   19.622949   25.656586 H          1 MOL1         0.3779
@<TRIPOS>BOND
    1     1     2    1
    2     1     3    1
    3     1     4    1
    4     4     5    1
    5     4     6    1
    6     4     7    1
    7     7     8    1
    8     7     9    1
    9     7    10    1
   10    10    11    1
   11    10    12    1
   12    10    13    1
   13    13    14    1
   14    13    15    1
   15    15    16    1
   16    15    17    1
   17     1    18    1
   18    15    18    1
   19    18    19    1
   20    18    20    1
   21    13    21    1
   22    21    22    1
@<TRIPOS>SUBSTRUCTURE
       1 MOL1            1 RESIDUE      1      MOL     
@<SCITEGIC>MOL_PROPERTY
VConf Rank
SciTegic.value.IntegerValue
845

@<SCITEGIC>MOL_PROPERTY
Conf_Id
SciTegic.value.IntegerValue
41

@<SCITEGIC>MOL_PROPERTY
Delta U+W
SciTegic.value.DoubleValue
-2.114

@<SCITEGIC>MOL_PROPERTY
U+W
SciTegic.value.DoubleValue
4.310

@<SCITEGIC>MOL_PROPERTY
Grad RMS
SciTegic.value.DoubleValue
0.000000

@<SCITEGIC>MOL_PROPERTY
U
SciTegic.value.DoubleValue
6.598

@<SCITEGIC>MOL_PROPERTY
W
SciTegic.value.DoubleValue
-2.289

@<SCITEGIC>MOL_PROPERTY
W(PB)
SciTegic.value.DoubleValue
-4.294

@<SCITEGIC>MOL_PROPERTY
W(SA)
SciTegic.value.DoubleValue
2.005

@<SCITEGIC>MOL_PROPERTY
Valence
SciTegic.value.DoubleValue
12.082

@<SCITEGIC>MOL_PROPERTY
Coulomb
SciTegic.value.DoubleValue
-7.801

@<SCITEGIC>MOL_PROPERTY
VdW
SciTegic.value.DoubleValue
2.317

@<SCITEGIC>MOL_PROPERTY
VdW6
SciTegic.value.DoubleValue
-9.658

@<SCITEGIC>MOL_PROPERTY
VdW12
SciTegic.value.DoubleValue
11.975

@<SCITEGIC>MOL_PROPERTY
Bond
SciTegic.value.DoubleValue
0.267

@<SCITEGIC>MOL_PROPERTY
Angle
SciTegic.value.DoubleValue
3.051

@<SCITEGIC>MOL_PROPERTY
Pdih
SciTegic.value.DoubleValue
8.764

@<SCITEGIC>MOL_PROPERTY
Idih
SciTegic.value.DoubleValue
0.000

@<SCITEGIC>MOL_PROPERTY
Tether
SciTegic.value.DoubleValue
0.000

@<TRIPOS>MOLECULE
guest-5_confgen4.mol2 : confsearch ligand conformer 846
          22          22           1
SMALL
USER_CHARGES
 
@<TRIPOS>ATOM
       1    C1      21.249824   18.813242   21.768607 C.3        1 MOL1        -0.1685
       2    H1      21.864606   18.124956   21.172910 H          1 MOL1         0.0832
       3    H2      21.553015   19.828166   21.476751 H          1 MOL1         0.0832
       4    C2      21.561874   18.557342   23.260092 C.3        1 MOL1        -0.1685
       5    H3      21.195321   17.562347   23.546806 H          1 MOL1         0.0832
       6    H4      22.652146   18.525507   23.389910 H          1 MOL1         0.0832
       7    C3      20.990337   19.615841   24.228672 C.3        1 MOL1        -0.1685
       8    H5      21.515419   20.568739   24.079798 H          1 MOL1         0.0832
       9    H6      21.233313   19.303270   25.253069 H          1 MOL1         0.0832
      10    C4      19.455867   19.834908   24.135961 C.3        1 MOL1        -0.1761
      11    H7      18.933007   18.872714   24.207081 H          1 MOL1         0.0832
      12    H8      19.147845   20.405623   25.021393 H          1 MOL1         0.0832
      13    C5      18.955342   20.615118   22.893069 C.3        1 MOL1         0.1218
      14    H9      17.937253   20.959455   23.125889 H          1 MOL1         0.0789
      15    C6      18.844016   19.797180   21.580163 C.3        1 MOL1        -0.1761
      16    H10     17.807272   19.449127   21.484856 H          1 MOL1         0.0832
      17    H11     19.002098   20.468556   20.725917 H          1 MOL1         0.0832
      18    C7      19.766364   18.563554   21.417866 C.3        1 MOL1        -0.1685
      19    H12     19.378909   17.726979   22.014889 H          1 MOL1         0.0832
      20    H13     19.703593   18.232763   20.372249 H          1 MOL1         0.0832
      21    O1      19.760719   21.769840   22.671925 O.3        1 MOL1        -0.5509
      22    H14     19.375747   22.240404   21.904934 H          1 MOL1         0.3779
@<TRIPOS>BOND
    1     1     2    1
    2     1     3    1
    3     1     4    1
    4     4     5    1
    5     4     6    1
    6     4     7    1
    7     7     8    1
    8     7     9    1
    9     7    10    1
   10    10    11    1
   11    10    12    1
   12    10    13    1
   13    13    14    1
   14    13    15    1
   15    15    16    1
   16    15    17    1
   17     1    18    1
   18    15    18    1
   19    18    19    1
   20    18    20    1
   21    13    21    1
   22    21    22    1
@<TRIPOS>SUBSTRUCTURE
       1 MOL1            1 RESIDUE      1      MOL     
@<SCITEGIC>MOL_PROPERTY
VConf Rank
SciTegic.value.IntegerValue
846

@<SCITEGIC>MOL_PROPERTY
Conf_Id
SciTegic.value.IntegerValue
104

@<SCITEGIC>MOL_PROPERTY
Delta U+W
SciTegic.value.DoubleValue
-1.172

@<SCITEGIC>MOL_PROPERTY
U+W
SciTegic.value.DoubleValue
5.252

@<SCITEGIC>MOL_PROPERTY
Grad RMS
SciTegic.value.DoubleValue
0.000000

@<SCITEGIC>MOL_PROPERTY
U
SciTegic.value.DoubleValue
7.482

@<SCITEGIC>MOL_PROPERTY
W
SciTegic.value.DoubleValue
-2.230

@<SCITEGIC>MOL_PROPERTY
W(PB)
SciTegic.value.DoubleValue
-4.220

@<SCITEGIC>MOL_PROPERTY
W(SA)
SciTegic.value.DoubleValue
1.990

@<SCITEGIC>MOL_PROPERTY
Valence
SciTegic.value.DoubleValue
12.309

@<SCITEGIC>MOL_PROPERTY
Coulomb
SciTegic.value.DoubleValue
-7.084

@<SCITEGIC>MOL_PROPERTY
VdW
SciTegic.value.DoubleValue
2.258

@<SCITEGIC>MOL_PROPERTY
VdW6
SciTegic.value.DoubleValue
-9.770

@<SCITEGIC>MOL_PROPERTY
VdW12
SciTegic.value.DoubleValue
12.028

@<SCITEGIC>MOL_PROPERTY
Bond
SciTegic.value.DoubleValue
0.284

@<SCITEGIC>MOL_PROPERTY
Angle
SciTegic.value.DoubleValue
3.491

@<SCITEGIC>MOL_PROPERTY
Pdih
SciTegic.value.DoubleValue
8.535

@<SCITEGIC>MOL_PROPERTY
Idih
SciTegic.value.DoubleValue
0.000

@<SCITEGIC>MOL_PROPERTY
Tether
SciTegic.value.DoubleValue
0.000

@<TRIPOS>MOLECULE
guest-5_confgen4.mol2 : confsearch ligand conformer 847
          22          22           1
SMALL
USER_CHARGES
 
@<TRIPOS>ATOM
       1    C1      19.782846   20.634537   21.431644 C.3        1 MOL1        -0.1685
       2    H1      18.745787   20.821830   21.741343 H          1 MOL1         0.0832
       3    H2      19.937082   21.226038   20.518805 H          1 MOL1         0.0832
       4    C2      19.991173   19.145868   21.071160 C.3        1 MOL1        -0.1685
       5    H3      19.600123   18.972447   20.059106 H          1 MOL1         0.0832
       6    H4      21.066447   18.936028   20.999806 H          1 MOL1         0.0832
       7    C3      19.314609   18.124180   22.019891 C.3        1 MOL1        -0.1685
       8    H5      19.867008   17.176181   21.961014 H          1 MOL1         0.0832
       9    H6      18.311409   17.901054   21.631646 H          1 MOL1         0.0832
      10    C4      19.159325   18.531599   23.510227 C.3        1 MOL1        -0.1761
      11    H7      18.302099   19.210055   23.609306 H          1 MOL1         0.0832
      12    H8      18.883507   17.634594   24.079708 H          1 MOL1         0.0832
      13    C5      20.385425   19.177518   24.195389 C.3        1 MOL1         0.1218
      14    H9      20.265358   19.038169   25.279385 H          1 MOL1         0.0789
      15    C6      20.478118   20.700220   23.948297 C.3        1 MOL1        -0.1761
      16    H10     19.540502   21.167362   24.276501 H          1 MOL1         0.0832
      17    H11     21.256996   21.106842   24.606516 H          1 MOL1         0.0832
      18    C7      20.780687   21.148031   22.496847 C.3        1 MOL1        -0.1685
      19    H12     20.773181   22.246298   22.475319 H          1 MOL1         0.0832
      20    H13     21.802880   20.854664   22.222007 H          1 MOL1         0.0832
      21    O1      21.582953   18.540314   23.778175 O.3        1 MOL1        -0.5509
      22    H14     21.576194   18.633692   22.804768 H          1 MOL1         0.3779
@<TRIPOS>BOND
    1     1     2    1
    2     1     3    1
    3     1     4    1
    4     4     5    1
    5     4     6    1
    6     4     7    1
    7     7     8    1
    8     7     9    1
    9     7    10    1
   10    10    11    1
   11    10    12    1
   12    10    13    1
   13    13    14    1
   14    13    15    1
   15    15    16    1
   16    15    17    1
   17     1    18    1
   18    15    18    1
   19    18    19    1
   20    18    20    1
   21    13    21    1
   22    21    22    1
@<TRIPOS>SUBSTRUCTURE
       1 MOL1            1 RESIDUE      1      MOL     
@<SCITEGIC>MOL_PROPERTY
VConf Rank
SciTegic.value.IntegerValue
847

@<SCITEGIC>MOL_PROPERTY
Conf_Id
SciTegic.value.IntegerValue
99

@<SCITEGIC>MOL_PROPERTY
Delta U+W
SciTegic.value.DoubleValue
-3.852

@<SCITEGIC>MOL_PROPERTY
U+W
SciTegic.value.DoubleValue
2.572

@<SCITEGIC>MOL_PROPERTY
Grad RMS
SciTegic.value.DoubleValue
0.000000

@<SCITEGIC>MOL_PROPERTY
U
SciTegic.value.DoubleValue
3.922

@<SCITEGIC>MOL_PROPERTY
W
SciTegic.value.DoubleValue
-1.350

@<SCITEGIC>MOL_PROPERTY
W(PB)
SciTegic.value.DoubleValue
-3.345

@<SCITEGIC>MOL_PROPERTY
W(SA)
SciTegic.value.DoubleValue
1.995

@<SCITEGIC>MOL_PROPERTY
Valence
SciTegic.value.DoubleValue
12.571

@<SCITEGIC>MOL_PROPERTY
Coulomb
SciTegic.value.DoubleValue
-10.581

@<SCITEGIC>MOL_PROPERTY
VdW
SciTegic.value.DoubleValue
1.932

@<SCITEGIC>MOL_PROPERTY
VdW6
SciTegic.value.DoubleValue
-10.483

@<SCITEGIC>MOL_PROPERTY
VdW12
SciTegic.value.DoubleValue
12.415

@<SCITEGIC>MOL_PROPERTY
Bond
SciTegic.value.DoubleValue
0.268

@<SCITEGIC>MOL_PROPERTY
Angle
SciTegic.value.DoubleValue
3.728

@<SCITEGIC>MOL_PROPERTY
Pdih
SciTegic.value.DoubleValue
8.575

@<SCITEGIC>MOL_PROPERTY
Idih
SciTegic.value.DoubleValue
0.000

@<SCITEGIC>MOL_PROPERTY
Tether
SciTegic.value.DoubleValue
0.000

@<TRIPOS>MOLECULE
guest-5_confgen4.mol2 : confsearch ligand conformer 848
          22          22           1
SMALL
USER_CHARGES
 
@<TRIPOS>ATOM
       1    C1      20.713521   18.529943   23.791735 C.3        1 MOL1        -0.1685
       2    H1      20.957309   17.514173   24.132427 H          1 MOL1         0.0832
       3    H2      21.096428   19.192287   24.579604 H          1 MOL1         0.0832
       4    C2      19.163464   18.644040   23.701411 C.3        1 MOL1        -0.1685
       5    H3      18.736337   17.677709   24.003165 H          1 MOL1         0.0832
       6    H4      18.792888   19.361957   24.445267 H          1 MOL1         0.0832
       7    C3      18.588929   18.999213   22.306236 C.3        1 MOL1        -0.1685
       8    H5      17.499977   18.857233   22.333644 H          1 MOL1         0.0832
       9    H6      18.942963   18.272922   21.564124 H          1 MOL1         0.0832
      10    C4      18.867462   20.442489   21.802052 C.3        1 MOL1        -0.1761
      11    H7      18.775548   20.447391   20.708311 H          1 MOL1         0.0832
      12    H8      18.063438   21.097327   22.163615 H          1 MOL1         0.0832
      13    C5      20.214729   21.103906   22.183574 C.3        1 MOL1         0.1218
      14    H9      20.317271   22.002983   21.559137 H          1 MOL1         0.0789
      15    C6      21.486233   20.250002   21.954948 C.3        1 MOL1        -0.1761
      16    H10     21.703984   20.232341   20.879303 H          1 MOL1         0.0832
      17    H11     22.329759   20.783602   22.412912 H          1 MOL1         0.0832
      18    C7      21.491055   18.785794   22.475400 C.3        1 MOL1        -0.1685
      19    H12     21.122988   18.112780   21.691087 H          1 MOL1         0.0832
      20    H13     22.537096   18.486662   22.627201 H          1 MOL1         0.0832
      21    O1      20.167594   21.535431   23.534428 O.3        1 MOL1        -0.5509
      22    H14     20.076899   20.705716   24.044605 H          1 MOL1         0.3779
@<TRIPOS>BOND
    1     1     2    1
    2     1     3    1
    3     1     4    1
    4     4     5    1
    5     4     6    1
    6     4     7    1
    7     7     8    1
    8     7     9    1
    9     7    10    1
   10    10    11    1
   11    10    12    1
   12    10    13    1
   13    13    14    1
   14    13    15    1
   15    15    16    1
   16    15    17    1
   17     1    18    1
   18    15    18    1
   19    18    19    1
   20    18    20    1
   21    13    21    1
   22    21    22    1
@<TRIPOS>SUBSTRUCTURE
       1 MOL1            1 RESIDUE      1      MOL     
@<SCITEGIC>MOL_PROPERTY
VConf Rank
SciTegic.value.IntegerValue
848

@<SCITEGIC>MOL_PROPERTY
Conf_Id
SciTegic.value.IntegerValue
98

@<SCITEGIC>MOL_PROPERTY
Delta U+W
SciTegic.value.DoubleValue
0.930

@<SCITEGIC>MOL_PROPERTY
U+W
SciTegic.value.DoubleValue
7.353

@<SCITEGIC>MOL_PROPERTY
Grad RMS
SciTegic.value.DoubleValue
0.000000

@<SCITEGIC>MOL_PROPERTY
U
SciTegic.value.DoubleValue
8.455

@<SCITEGIC>MOL_PROPERTY
W
SciTegic.value.DoubleValue
-1.102

@<SCITEGIC>MOL_PROPERTY
W(PB)
SciTegic.value.DoubleValue
-3.101

@<SCITEGIC>MOL_PROPERTY
W(SA)
SciTegic.value.DoubleValue
2.000

@<SCITEGIC>MOL_PROPERTY
Valence
SciTegic.value.DoubleValue
15.601

@<SCITEGIC>MOL_PROPERTY
Coulomb
SciTegic.value.DoubleValue
-10.573

@<SCITEGIC>MOL_PROPERTY
VdW
SciTegic.value.DoubleValue
3.427

@<SCITEGIC>MOL_PROPERTY
VdW6
SciTegic.value.DoubleValue
-11.360

@<SCITEGIC>MOL_PROPERTY
VdW12
SciTegic.value.DoubleValue
14.787

@<SCITEGIC>MOL_PROPERTY
Bond
SciTegic.value.DoubleValue
0.471

@<SCITEGIC>MOL_PROPERTY
Angle
SciTegic.value.DoubleValue
5.445

@<SCITEGIC>MOL_PROPERTY
Pdih
SciTegic.value.DoubleValue
9.685

@<SCITEGIC>MOL_PROPERTY
Idih
SciTegic.value.DoubleValue
0.000

@<SCITEGIC>MOL_PROPERTY
Tether
SciTegic.value.DoubleValue
0.000

@<TRIPOS>MOLECULE
guest-5_confgen4.mol2 : confsearch ligand conformer 849
          22          22           1
SMALL
USER_CHARGES
 
@<TRIPOS>ATOM
       1    C1      19.833776   21.225270   22.409231 C.3        1 MOL1        -0.1685
       2    H1      18.827464   21.008985   22.027998 H          1 MOL1         0.0832
       3    H2      19.916633   22.320477   22.390076 H          1 MOL1         0.0832
       4    C2      20.896357   20.633313   21.448675 C.3        1 MOL1        -0.1685
       5    H3      20.740718   21.089888   20.461665 H          1 MOL1         0.0832
       6    H4      21.898306   20.950354   21.768371 H          1 MOL1         0.0832
       7    C3      20.880607   19.089221   21.274962 C.3        1 MOL1        -0.1685
       8    H5      21.701094   18.637676   21.847608 H          1 MOL1         0.0832
       9    H6      21.109150   18.860339   20.225192 H          1 MOL1         0.0832
      10    C4      19.543796   18.398882   21.654540 C.3        1 MOL1        -0.1761
      11    H7      18.719770   18.895988   21.127764 H          1 MOL1         0.0832
      12    H8      19.557839   17.376246   21.254034 H          1 MOL1         0.0832
      13    C5      19.216653   18.340007   23.175520 C.3        1 MOL1         0.1218
      14    H9      18.167459   18.641053   23.308303 H          1 MOL1         0.0789
      15    C6      20.094082   19.229415   24.091669 C.3        1 MOL1        -0.1761
      16    H10     19.850800   19.009503   25.139290 H          1 MOL1         0.0832
      17    H11     21.148156   18.948749   23.978782 H          1 MOL1         0.0832
      18    C7      19.940796   20.756250   23.879336 C.3        1 MOL1        -0.1685
      19    H12     19.045340   21.101328   24.414027 H          1 MOL1         0.0832
      20    H13     20.790810   21.261438   24.357806 H          1 MOL1         0.0832
      21    O1      19.366076   16.995366   23.616869 O.3        1 MOL1        -0.5509
      22    H14     19.099568   16.976055   24.559620 H          1 MOL1         0.3779
@<TRIPOS>BOND
    1     1     2    1
    2     1     3    1
    3     1     4    1
    4     4     5    1
    5     4     6    1
    6     4     7    1
    7     7     8    1
    8     7     9    1
    9     7    10    1
   10    10    11    1
   11    10    12    1
   12    10    13    1
   13    13    14    1
   14    13    15    1
   15    15    16    1
   16    15    17    1
   17     1    18    1
   18    15    18    1
   19    18    19    1
   20    18    20    1
   21    13    21    1
   22    21    22    1
@<TRIPOS>SUBSTRUCTURE
       1 MOL1            1 RESIDUE      1      MOL     
@<SCITEGIC>MOL_PROPERTY
VConf Rank
SciTegic.value.IntegerValue
849

@<SCITEGIC>MOL_PROPERTY
Conf_Id
SciTegic.value.IntegerValue
141

@<SCITEGIC>MOL_PROPERTY
Delta U+W
SciTegic.value.DoubleValue
0.000

@<SCITEGIC>MOL_PROPERTY
U+W
SciTegic.value.DoubleValue
6.423

@<SCITEGIC>MOL_PROPERTY
Grad RMS
SciTegic.value.DoubleValue
0.000000

@<SCITEGIC>MOL_PROPERTY
U
SciTegic.value.DoubleValue
8.781

@<SCITEGIC>MOL_PROPERTY
W
SciTegic.value.DoubleValue
-2.358

@<SCITEGIC>MOL_PROPERTY
W(PB)
SciTegic.value.DoubleValue
-4.373

@<SCITEGIC>MOL_PROPERTY
W(SA)
SciTegic.value.DoubleValue
2.015

@<SCITEGIC>MOL_PROPERTY
Valence
SciTegic.value.DoubleValue
13.328

@<SCITEGIC>MOL_PROPERTY
Coulomb
SciTegic.value.DoubleValue
-8.387

@<SCITEGIC>MOL_PROPERTY
VdW
SciTegic.value.DoubleValue
3.840

@<SCITEGIC>MOL_PROPERTY
VdW6
SciTegic.value.DoubleValue
-9.744

@<SCITEGIC>MOL_PROPERTY
VdW12
SciTegic.value.DoubleValue
13.584

@<SCITEGIC>MOL_PROPERTY
Bond
SciTegic.value.DoubleValue
0.436

@<SCITEGIC>MOL_PROPERTY
Angle
SciTegic.value.DoubleValue
3.478

@<SCITEGIC>MOL_PROPERTY
Pdih
SciTegic.value.DoubleValue
9.415

@<SCITEGIC>MOL_PROPERTY
Idih
SciTegic.value.DoubleValue
0.000

@<SCITEGIC>MOL_PROPERTY
Tether
SciTegic.value.DoubleValue
0.000

@<TRIPOS>MOLECULE
guest-5_confgen4.mol2 : confsearch ligand conformer 850
          22          22           1
SMALL
USER_CHARGES
 
@<TRIPOS>ATOM
       1    C1      18.681917   18.463924   22.875973 C.3        1 MOL1        -0.1685
       2    H1      19.377392   17.813241   23.423271 H          1 MOL1         0.0832
       3    H2      17.704596   17.963592   22.913597 H          1 MOL1         0.0832
       4    C2      19.090963   18.584105   21.388057 C.3        1 MOL1        -0.1685
       5    H3      18.930454   17.612349   20.901454 H          1 MOL1         0.0832
       6    H4      18.416233   19.286991   20.880544 H          1 MOL1         0.0832
       7    C3      20.555783   19.011679   21.139438 C.3        1 MOL1        -0.1685
       8    H5      20.700041   19.125814   20.056392 H          1 MOL1         0.0832
       9    H6      21.229889   18.200769   21.447607 H          1 MOL1         0.0832
      10    C4      20.980184   20.327735   21.835901 C.3        1 MOL1        -0.1761
      11    H7      21.940450   20.637626   21.403072 H          1 MOL1         0.0832
      12    H8      20.269025   21.132626   21.609186 H          1 MOL1         0.0832
      13    C5      21.146966   20.167240   23.363661 C.3        1 MOL1         0.1218
      14    H9      21.503517   19.146987   23.565646 H          1 MOL1         0.0789
      15    C6      19.854093   20.399326   24.178468 C.3        1 MOL1        -0.1761
      16    H10     20.003965   19.955343   25.171074 H          1 MOL1         0.0832
      17    H11     19.719669   21.476060   24.347831 H          1 MOL1         0.0832
      18    C7      18.542995   19.836695   23.574718 C.3        1 MOL1        -0.1685
      19    H12     17.805484   19.751835   24.384472 H          1 MOL1         0.0832
      20    H13     18.121552   20.564929   22.868482 H          1 MOL1         0.0832
      21    O1      22.126318   21.093509   23.817662 O.3        1 MOL1        -0.5509
      22    H14     22.957574   20.880136   23.344265 H          1 MOL1         0.3779
@<TRIPOS>BOND
    1     1     2    1
    2     1     3    1
    3     1     4    1
    4     4     5    1
    5     4     6    1
    6     4     7    1
    7     7     8    1
    8     7     9    1
    9     7    10    1
   10    10    11    1
   11    10    12    1
   12    10    13    1
   13    13    14    1
   14    13    15    1
   15    15    16    1
   16    15    17    1
   17     1    18    1
   18    15    18    1
   19    18    19    1
   20    18    20    1
   21    13    21    1
   22    21    22    1
@<TRIPOS>SUBSTRUCTURE
       1 MOL1            1 RESIDUE      1      MOL     
@<SCITEGIC>MOL_PROPERTY
VConf Rank
SciTegic.value.IntegerValue
850

@<SCITEGIC>MOL_PROPERTY
Conf_Id
SciTegic.value.IntegerValue
144

@<SCITEGIC>MOL_PROPERTY
Delta U+W
SciTegic.value.DoubleValue
-3.291

@<SCITEGIC>MOL_PROPERTY
U+W
SciTegic.value.DoubleValue
3.132

@<SCITEGIC>MOL_PROPERTY
Grad RMS
SciTegic.value.DoubleValue
0.000000

@<SCITEGIC>MOL_PROPERTY
U
SciTegic.value.DoubleValue
5.411

@<SCITEGIC>MOL_PROPERTY
W
SciTegic.value.DoubleValue
-2.279

@<SCITEGIC>MOL_PROPERTY
W(PB)
SciTegic.value.DoubleValue
-4.300

@<SCITEGIC>MOL_PROPERTY
W(SA)
SciTegic.value.DoubleValue
2.021

@<SCITEGIC>MOL_PROPERTY
Valence
SciTegic.value.DoubleValue
11.909

@<SCITEGIC>MOL_PROPERTY
Coulomb
SciTegic.value.DoubleValue
-8.733

@<SCITEGIC>MOL_PROPERTY
VdW
SciTegic.value.DoubleValue
2.236

@<SCITEGIC>MOL_PROPERTY
VdW6
SciTegic.value.DoubleValue
-8.936

@<SCITEGIC>MOL_PROPERTY
VdW12
SciTegic.value.DoubleValue
11.172

@<SCITEGIC>MOL_PROPERTY
Bond
SciTegic.value.DoubleValue
0.223

@<SCITEGIC>MOL_PROPERTY
Angle
SciTegic.value.DoubleValue
2.457

@<SCITEGIC>MOL_PROPERTY
Pdih
SciTegic.value.DoubleValue
9.228

@<SCITEGIC>MOL_PROPERTY
Idih
SciTegic.value.DoubleValue
0.000

@<SCITEGIC>MOL_PROPERTY
Tether
SciTegic.value.DoubleValue
0.000

@<TRIPOS>MOLECULE
guest-5_confgen4.mol2 : confsearch ligand conformer 851
          22          22           1
SMALL
USER_CHARGES
 
@<TRIPOS>ATOM
       1    C1      20.707763   20.643379   21.546813 C.3        1 MOL1        -0.1685
       2    H1      21.439397   21.209912   20.954662 H          1 MOL1         0.0832
       3    H2      19.718401   20.999081   21.228503 H          1 MOL1         0.0832
       4    C2      20.953030   20.960417   23.040603 C.3        1 MOL1        -0.1685
       5    H3      21.770664   20.331483   23.418348 H          1 MOL1         0.0832
       6    H4      21.313742   21.994301   23.129877 H          1 MOL1         0.0832
       7    C3      19.714375   20.807108   23.956109 C.3        1 MOL1        -0.1685
       8    H5      19.116367   21.727287   23.905379 H          1 MOL1         0.0832
       9    H6      20.063602   20.735445   24.995302 H          1 MOL1         0.0832
      10    C4      18.781383   19.608577   23.654137 C.3        1 MOL1        -0.1761
      11    H7      18.165503   19.429442   24.545806 H          1 MOL1         0.0832
      12    H8      18.078995   19.889981   22.858928 H          1 MOL1         0.0832
      13    C5      19.505957   18.302813   23.257191 C.3        1 MOL1         0.1218
      14    H9      20.456525   18.228217   23.804297 H          1 MOL1         0.0789
      15    C6      19.773724   18.212157   21.737632 C.3        1 MOL1        -0.1761
      16    H10     20.049739   17.178355   21.490246 H          1 MOL1         0.0832
      17    H11     18.845282   18.417693   21.189147 H          1 MOL1         0.0832
      18    C7      20.890876   19.143870   21.210757 C.3        1 MOL1        -0.1685
      19    H12     21.861828   18.800264   21.593004 H          1 MOL1         0.0832
      20    H13     20.943189   19.033474   20.119032 H          1 MOL1         0.0832
      21    O1      18.679610   17.205024   23.620814 O.3        1 MOL1        -0.5509
      22    H14     17.846122   17.307348   23.116841 H          1 MOL1         0.3779
@<TRIPOS>BOND
    1     1     2    1
    2     1     3    1
    3     1     4    1
    4     4     5    1
    5     4     6    1
    6     4     7    1
    7     7     8    1
    8     7     9    1
    9     7    10    1
   10    10    11    1
   11    10    12    1
   12    10    13    1
   13    13    14    1
   14    13    15    1
   15    15    16    1
   16    15    17    1
   17     1    18    1
   18    15    18    1
   19    18    19    1
   20    18    20    1
   21    13    21    1
   22    21    22    1
@<TRIPOS>SUBSTRUCTURE
       1 MOL1            1 RESIDUE      1      MOL     
@<SCITEGIC>MOL_PROPERTY
VConf Rank
SciTegic.value.IntegerValue
851

@<SCITEGIC>MOL_PROPERTY
Conf_Id
SciTegic.value.IntegerValue
76

@<SCITEGIC>MOL_PROPERTY
Delta U+W
SciTegic.value.DoubleValue
-3.175

@<SCITEGIC>MOL_PROPERTY
U+W
SciTegic.value.DoubleValue
3.248

@<SCITEGIC>MOL_PROPERTY
Grad RMS
SciTegic.value.DoubleValue
0.000000

@<SCITEGIC>MOL_PROPERTY
U
SciTegic.value.DoubleValue
5.336

@<SCITEGIC>MOL_PROPERTY
W
SciTegic.value.DoubleValue
-2.088

@<SCITEGIC>MOL_PROPERTY
W(PB)
SciTegic.value.DoubleValue
-4.098

@<SCITEGIC>MOL_PROPERTY
W(SA)
SciTegic.value.DoubleValue
2.010

@<SCITEGIC>MOL_PROPERTY
Valence
SciTegic.value.DoubleValue
12.390

@<SCITEGIC>MOL_PROPERTY
Coulomb
SciTegic.value.DoubleValue
-9.270

@<SCITEGIC>MOL_PROPERTY
VdW
SciTegic.value.DoubleValue
2.216

@<SCITEGIC>MOL_PROPERTY
VdW6
SciTegic.value.DoubleValue
-8.967

@<SCITEGIC>MOL_PROPERTY
VdW12
SciTegic.value.DoubleValue
11.183

@<SCITEGIC>MOL_PROPERTY
Bond
SciTegic.value.DoubleValue
0.218

@<SCITEGIC>MOL_PROPERTY
Angle
SciTegic.value.DoubleValue
2.426

@<SCITEGIC>MOL_PROPERTY
Pdih
SciTegic.value.DoubleValue
9.745

@<SCITEGIC>MOL_PROPERTY
Idih
SciTegic.value.DoubleValue
0.000

@<SCITEGIC>MOL_PROPERTY
Tether
SciTegic.value.DoubleValue
0.000

@<TRIPOS>MOLECULE
guest-5_confgen4.mol2 : confsearch ligand conformer 852
          22          22           1
SMALL
USER_CHARGES
 
@<TRIPOS>ATOM
       1    C1      19.850156   20.830557   21.327912 C.3        1 MOL1        -0.1685
       2    H1      19.338466   20.693439   20.365543 H          1 MOL1         0.0832
       3    H2      20.136009   21.890612   21.365154 H          1 MOL1         0.0832
       4    C2      21.133035   19.965192   21.321553 C.3        1 MOL1        -0.1685
       5    H3      20.938998   19.025902   20.786237 H          1 MOL1         0.0832
       6    H4      21.893484   20.490015   20.727363 H          1 MOL1         0.0832
       7    C3      21.716641   19.650043   22.718560 C.3        1 MOL1        -0.1685
       8    H5      21.607858   20.509813   23.393688 H          1 MOL1         0.0832
       9    H6      22.796734   19.484617   22.607544 H          1 MOL1         0.0832
      10    C4      21.106104   18.372963   23.349742 C.3        1 MOL1        -0.1761
      11    H7      21.164110   17.549795   22.626180 H          1 MOL1         0.0832
      12    H8      21.734235   18.066029   24.196298 H          1 MOL1         0.0832
      13    C5      19.649989   18.489817   23.854887 C.3        1 MOL1         0.1218
      14    H9      19.315790   17.470678   24.097301 H          1 MOL1         0.0789
      15    C6      18.641538   19.068699   22.830968 C.3        1 MOL1        -0.1761
      16    H10     18.649817   18.461494   21.916577 H          1 MOL1         0.0832
      17    H11     17.635723   18.951806   23.254595 H          1 MOL1         0.0832
      18    C7      18.847764   20.564299   22.476190 C.3        1 MOL1        -0.1685
      19    H12     17.880207   20.995397   22.185655 H          1 MOL1         0.0832
      20    H13     19.158971   21.123673   23.368206 H          1 MOL1         0.0832
      21    O1      19.628551   19.260196   25.052417 O.3        1 MOL1        -0.5509
      22    H14     18.688038   19.352773   25.307660 H          1 MOL1         0.3779
@<TRIPOS>BOND
    1     1     2    1
    2     1     3    1
    3     1     4    1
    4     4     5    1
    5     4     6    1
    6     4     7    1
    7     7     8    1
    8     7     9    1
    9     7    10    1
   10    10    11    1
   11    10    12    1
   12    10    13    1
   13    13    14    1
   14    13    15    1
   15    15    16    1
   16    15    17    1
   17     1    18    1
   18    15    18    1
   19    18    19    1
   20    18    20    1
   21    13    21    1
   22    21    22    1
@<TRIPOS>SUBSTRUCTURE
       1 MOL1            1 RESIDUE      1      MOL     
@<SCITEGIC>MOL_PROPERTY
VConf Rank
SciTegic.value.IntegerValue
852

@<SCITEGIC>MOL_PROPERTY
Conf_Id
SciTegic.value.IntegerValue
95

@<SCITEGIC>MOL_PROPERTY
Delta U+W
SciTegic.value.DoubleValue
-2.289

@<SCITEGIC>MOL_PROPERTY
U+W
SciTegic.value.DoubleValue
4.134

@<SCITEGIC>MOL_PROPERTY
Grad RMS
SciTegic.value.DoubleValue
0.000000

@<SCITEGIC>MOL_PROPERTY
U
SciTegic.value.DoubleValue
6.373

@<SCITEGIC>MOL_PROPERTY
W
SciTegic.value.DoubleValue
-2.240

@<SCITEGIC>MOL_PROPERTY
W(PB)
SciTegic.value.DoubleValue
-4.254

@<SCITEGIC>MOL_PROPERTY
W(SA)
SciTegic.value.DoubleValue
2.015

@<SCITEGIC>MOL_PROPERTY
Valence
SciTegic.value.DoubleValue
12.093

@<SCITEGIC>MOL_PROPERTY
Coulomb
SciTegic.value.DoubleValue
-8.058

@<SCITEGIC>MOL_PROPERTY
VdW
SciTegic.value.DoubleValue
2.339

@<SCITEGIC>MOL_PROPERTY
VdW6
SciTegic.value.DoubleValue
-9.683

@<SCITEGIC>MOL_PROPERTY
VdW12
SciTegic.value.DoubleValue
12.022

@<SCITEGIC>MOL_PROPERTY
Bond
SciTegic.value.DoubleValue
0.268

@<SCITEGIC>MOL_PROPERTY
Angle
SciTegic.value.DoubleValue
3.005

@<SCITEGIC>MOL_PROPERTY
Pdih
SciTegic.value.DoubleValue
8.820

@<SCITEGIC>MOL_PROPERTY
Idih
SciTegic.value.DoubleValue
0.000

@<SCITEGIC>MOL_PROPERTY
Tether
SciTegic.value.DoubleValue
0.000

@<TRIPOS>MOLECULE
guest-5_confgen4.mol2 : confsearch ligand conformer 853
          22          22           1
SMALL
USER_CHARGES
 
@<TRIPOS>ATOM
       1    C1      19.497795   21.170025   23.695891 C.3        1 MOL1        -0.1685
       2    H1      20.096405   22.053824   23.955349 H          1 MOL1         0.0832
       3    H2      18.491222   21.365792   24.089943 H          1 MOL1         0.0832
       4    C2      20.095198   19.947529   24.432738 C.3        1 MOL1        -0.1685
       5    H3      21.188916   20.041568   24.470388 H          1 MOL1         0.0832
       6    H4      19.761420   19.985405   25.478661 H          1 MOL1         0.0832
       7    C3      19.716962   18.572562   23.834475 C.3        1 MOL1        -0.1685
       8    H5      18.678615   18.572015   23.475790 H          1 MOL1         0.0832
       9    H6      19.761748   17.827104   24.639903 H          1 MOL1         0.0832
      10    C4      20.689872   18.119232   22.716778 C.3        1 MOL1        -0.1761
      11    H7      21.721727   18.213369   23.079146 H          1 MOL1         0.0832
      12    H8      20.541646   17.046664   22.536197 H          1 MOL1         0.0832
      13    C5      20.570420   18.861618   21.366101 C.3        1 MOL1         0.1218
      14    H9      21.429787   18.549666   20.755138 H          1 MOL1         0.0789
      15    C6      20.616414   20.407457   21.458832 C.3        1 MOL1        -0.1761
      16    H10     21.545968   20.725930   21.947700 H          1 MOL1         0.0832
      17    H11     20.670415   20.792381   20.432311 H          1 MOL1         0.0832
      18    C7      19.395677   21.063015   22.155601 C.3        1 MOL1        -0.1685
      19    H12     19.263761   22.077104   21.755054 H          1 MOL1         0.0832
      20    H13     18.478056   20.523545   21.886226 H          1 MOL1         0.0832
      21    O1      19.380380   18.446329   20.702601 O.3        1 MOL1        -0.5509
      22    H14     19.393933   17.467682   20.686667 H          1 MOL1         0.3779
@<TRIPOS>BOND
    1     1     2    1
    2     1     3    1
    3     1     4    1
    4     4     5    1
    5     4     6    1
    6     4     7    1
    7     7     8    1
    8     7     9    1
    9     7    10    1
   10    10    11    1
   11    10    12    1
   12    10    13    1
   13    13    14    1
   14    13    15    1
   15    15    16    1
   16    15    17    1
   17     1    18    1
   18    15    18    1
   19    18    19    1
   20    18    20    1
   21    13    21    1
   22    21    22    1
@<TRIPOS>SUBSTRUCTURE
       1 MOL1            1 RESIDUE      1      MOL     
@<SCITEGIC>MOL_PROPERTY
VConf Rank
SciTegic.value.IntegerValue
853

@<SCITEGIC>MOL_PROPERTY
Conf_Id
SciTegic.value.IntegerValue
41

@<SCITEGIC>MOL_PROPERTY
Delta U+W
SciTegic.value.DoubleValue
-2.114

@<SCITEGIC>MOL_PROPERTY
U+W
SciTegic.value.DoubleValue
4.310

@<SCITEGIC>MOL_PROPERTY
Grad RMS
SciTegic.value.DoubleValue
0.000000

@<SCITEGIC>MOL_PROPERTY
U
SciTegic.value.DoubleValue
6.598

@<SCITEGIC>MOL_PROPERTY
W
SciTegic.value.DoubleValue
-2.289

@<SCITEGIC>MOL_PROPERTY
W(PB)
SciTegic.value.DoubleValue
-4.294

@<SCITEGIC>MOL_PROPERTY
W(SA)
SciTegic.value.DoubleValue
2.005

@<SCITEGIC>MOL_PROPERTY
Valence
SciTegic.value.DoubleValue
12.082

@<SCITEGIC>MOL_PROPERTY
Coulomb
SciTegic.value.DoubleValue
-7.801

@<SCITEGIC>MOL_PROPERTY
VdW
SciTegic.value.DoubleValue
2.317

@<SCITEGIC>MOL_PROPERTY
VdW6
SciTegic.value.DoubleValue
-9.658

@<SCITEGIC>MOL_PROPERTY
VdW12
SciTegic.value.DoubleValue
11.975

@<SCITEGIC>MOL_PROPERTY
Bond
SciTegic.value.DoubleValue
0.267

@<SCITEGIC>MOL_PROPERTY
Angle
SciTegic.value.DoubleValue
3.051

@<SCITEGIC>MOL_PROPERTY
Pdih
SciTegic.value.DoubleValue
8.764

@<SCITEGIC>MOL_PROPERTY
Idih
SciTegic.value.DoubleValue
0.000

@<SCITEGIC>MOL_PROPERTY
Tether
SciTegic.value.DoubleValue
0.000

@<TRIPOS>MOLECULE
guest-5_confgen4.mol2 : confsearch ligand conformer 854
          22          22           1
SMALL
USER_CHARGES
 
@<TRIPOS>ATOM
       1    C1      18.856293   19.195776   23.786630 C.3        1 MOL1        -0.1685
       2    H1      17.896825   19.081376   24.309014 H          1 MOL1         0.0832
       3    H2      19.547384   18.479154   24.251412 H          1 MOL1         0.0832
       4    C2      19.344427   20.645514   24.004286 C.3        1 MOL1        -0.1685
       5    H3      18.675217   21.341232   23.480153 H          1 MOL1         0.0832
       6    H4      19.255732   20.888971   25.071723 H          1 MOL1         0.0832
       7    C3      20.802894   20.906491   23.568411 C.3        1 MOL1        -0.1685
       8    H5      21.486370   20.367504   24.237922 H          1 MOL1         0.0832
       9    H6      21.017333   21.972107   23.725267 H          1 MOL1         0.0832
      10    C4      21.122298   20.556622   22.089642 C.3        1 MOL1        -0.1761
      11    H7      20.391793   21.033051   21.423582 H          1 MOL1         0.0832
      12    H8      22.089832   21.011880   21.842253 H          1 MOL1         0.0832
      13    C5      21.230324   19.045978   21.757503 C.3        1 MOL1         0.1218
      14    H9      21.759990   18.971493   20.796679 H          1 MOL1         0.0789
      15    C6      19.885701   18.296927   21.567633 C.3        1 MOL1        -0.1761
      16    H10     19.659121   18.274674   20.493749 H          1 MOL1         0.0832
      17    H11     20.017942   17.245794   21.855910 H          1 MOL1         0.0832
      18    C7      18.638449   18.856933   22.295407 C.3        1 MOL1        -0.1685
      19    H12     18.262528   19.741747   21.764180 H          1 MOL1         0.0832
      20    H13     17.839974   18.106432   22.218820 H          1 MOL1         0.0832
      21    O1      22.018680   18.375463   22.737210 O.3        1 MOL1        -0.5509
      22    H14     22.084778   17.440510   22.455422 H          1 MOL1         0.3779
@<TRIPOS>BOND
    1     1     2    1
    2     1     3    1
    3     1     4    1
    4     4     5    1
    5     4     6    1
    6     4     7    1
    7     7     8    1
    8     7     9    1
    9     7    10    1
   10    10    11    1
   11    10    12    1
   12    10    13    1
   13    13    14    1
   14    13    15    1
   15    15    16    1
   16    15    17    1
   17     1    18    1
   18    15    18    1
   19    18    19    1
   20    18    20    1
   21    13    21    1
   22    21    22    1
@<TRIPOS>SUBSTRUCTURE
       1 MOL1            1 RESIDUE      1      MOL     
@<SCITEGIC>MOL_PROPERTY
VConf Rank
SciTegic.value.IntegerValue
854

@<SCITEGIC>MOL_PROPERTY
Conf_Id
SciTegic.value.IntegerValue
104

@<SCITEGIC>MOL_PROPERTY
Delta U+W
SciTegic.value.DoubleValue
-1.172

@<SCITEGIC>MOL_PROPERTY
U+W
SciTegic.value.DoubleValue
5.252

@<SCITEGIC>MOL_PROPERTY
Grad RMS
SciTegic.value.DoubleValue
0.000000

@<SCITEGIC>MOL_PROPERTY
U
SciTegic.value.DoubleValue
7.482

@<SCITEGIC>MOL_PROPERTY
W
SciTegic.value.DoubleValue
-2.230

@<SCITEGIC>MOL_PROPERTY
W(PB)
SciTegic.value.DoubleValue
-4.220

@<SCITEGIC>MOL_PROPERTY
W(SA)
SciTegic.value.DoubleValue
1.990

@<SCITEGIC>MOL_PROPERTY
Valence
SciTegic.value.DoubleValue
12.309

@<SCITEGIC>MOL_PROPERTY
Coulomb
SciTegic.value.DoubleValue
-7.084

@<SCITEGIC>MOL_PROPERTY
VdW
SciTegic.value.DoubleValue
2.258

@<SCITEGIC>MOL_PROPERTY
VdW6
SciTegic.value.DoubleValue
-9.770

@<SCITEGIC>MOL_PROPERTY
VdW12
SciTegic.value.DoubleValue
12.028

@<SCITEGIC>MOL_PROPERTY
Bond
SciTegic.value.DoubleValue
0.284

@<SCITEGIC>MOL_PROPERTY
Angle
SciTegic.value.DoubleValue
3.491

@<SCITEGIC>MOL_PROPERTY
Pdih
SciTegic.value.DoubleValue
8.535

@<SCITEGIC>MOL_PROPERTY
Idih
SciTegic.value.DoubleValue
0.000

@<SCITEGIC>MOL_PROPERTY
Tether
SciTegic.value.DoubleValue
0.000

@<TRIPOS>MOLECULE
guest-5_confgen4.mol2 : confsearch ligand conformer 855
          22          22           1
SMALL
USER_CHARGES
 
@<TRIPOS>ATOM
       1    C1      18.941355   20.103344   23.755241 C.3        1 MOL1        -0.1685
       2    H1      19.674613   20.188094   24.568650 H          1 MOL1         0.0832
       3    H2      17.972478   20.382316   24.191581 H          1 MOL1         0.0832
       4    C2      18.833505   18.643364   23.258944 C.3        1 MOL1        -0.1685
       5    H3      18.201929   18.080716   23.960220 H          1 MOL1         0.0832
       6    H4      18.288171   18.622467   22.306311 H          1 MOL1         0.0832
       7    C3      20.175549   17.881479   23.117081 C.3        1 MOL1        -0.1685
       8    H5      20.045850   17.084326   22.372071 H          1 MOL1         0.0832
       9    H6      20.383055   17.364116   24.063763 H          1 MOL1         0.0832
      10    C4      21.433373   18.717086   22.755359 C.3        1 MOL1        -0.1761
      11    H7      21.800904   19.221550   23.658350 H          1 MOL1         0.0832
      12    H8      22.232242   18.020507   22.469722 H          1 MOL1         0.0832
      13    C5      21.283191   19.764233   21.628013 C.3        1 MOL1         0.1218
      14    H9      22.289349   19.966670   21.233622 H          1 MOL1         0.0789
      15    C6      20.721399   21.112694   22.132307 C.3        1 MOL1        -0.1761
      16    H10     21.365213   21.481219   22.941477 H          1 MOL1         0.0832
      17    H11     20.815819   21.847209   21.321865 H          1 MOL1         0.0832
      18    C7      19.252023   21.109861   22.621915 C.3        1 MOL1        -0.1685
      19    H12     19.016149   22.119953   22.983563 H          1 MOL1         0.0832
      20    H13     18.576985   20.935392   21.773173 H          1 MOL1         0.0832
      21    O1      20.470752   19.256573   20.580925 O.3        1 MOL1        -0.5509
      22    H14     19.629806   19.024351   21.022705 H          1 MOL1         0.3779
@<TRIPOS>BOND
    1     1     2    1
    2     1     3    1
    3     1     4    1
    4     4     5    1
    5     4     6    1
    6     4     7    1
    7     7     8    1
    8     7     9    1
    9     7    10    1
   10    10    11    1
   11    10    12    1
   12    10    13    1
   13    13    14    1
   14    13    15    1
   15    15    16    1
   16    15    17    1
   17     1    18    1
   18    15    18    1
   19    18    19    1
   20    18    20    1
   21    13    21    1
   22    21    22    1
@<TRIPOS>SUBSTRUCTURE
       1 MOL1            1 RESIDUE      1      MOL     
@<SCITEGIC>MOL_PROPERTY
VConf Rank
SciTegic.value.IntegerValue
855

@<SCITEGIC>MOL_PROPERTY
Conf_Id
SciTegic.value.IntegerValue
99

@<SCITEGIC>MOL_PROPERTY
Delta U+W
SciTegic.value.DoubleValue
-3.852

@<SCITEGIC>MOL_PROPERTY
U+W
SciTegic.value.DoubleValue
2.572

@<SCITEGIC>MOL_PROPERTY
Grad RMS
SciTegic.value.DoubleValue
0.000000

@<SCITEGIC>MOL_PROPERTY
U
SciTegic.value.DoubleValue
3.922

@<SCITEGIC>MOL_PROPERTY
W
SciTegic.value.DoubleValue
-1.350

@<SCITEGIC>MOL_PROPERTY
W(PB)
SciTegic.value.DoubleValue
-3.345

@<SCITEGIC>MOL_PROPERTY
W(SA)
SciTegic.value.DoubleValue
1.995

@<SCITEGIC>MOL_PROPERTY
Valence
SciTegic.value.DoubleValue
12.571

@<SCITEGIC>MOL_PROPERTY
Coulomb
SciTegic.value.DoubleValue
-10.581

@<SCITEGIC>MOL_PROPERTY
VdW
SciTegic.value.DoubleValue
1.932

@<SCITEGIC>MOL_PROPERTY
VdW6
SciTegic.value.DoubleValue
-10.483

@<SCITEGIC>MOL_PROPERTY
VdW12
SciTegic.value.DoubleValue
12.415

@<SCITEGIC>MOL_PROPERTY
Bond
SciTegic.value.DoubleValue
0.268

@<SCITEGIC>MOL_PROPERTY
Angle
SciTegic.value.DoubleValue
3.728

@<SCITEGIC>MOL_PROPERTY
Pdih
SciTegic.value.DoubleValue
8.575

@<SCITEGIC>MOL_PROPERTY
Idih
SciTegic.value.DoubleValue
0.000

@<SCITEGIC>MOL_PROPERTY
Tether
SciTegic.value.DoubleValue
0.000

@<TRIPOS>MOLECULE
guest-5_confgen4.mol2 : confsearch ligand conformer 856
          22          22           1
SMALL
USER_CHARGES
 
@<TRIPOS>ATOM
       1    C1      21.658539   19.176495   22.363332 C.3        1 MOL1        -0.1685
       2    H1      22.664314   19.407939   21.986315 H          1 MOL1         0.0832
       3    H2      21.727994   18.148066   22.742233 H          1 MOL1         0.0832
       4    C2      20.671702   19.239650   21.160829 C.3        1 MOL1        -0.1685
       5    H3      21.250369   19.498268   20.263304 H          1 MOL1         0.0832
       6    H4      20.261331   18.241954   20.955276 H          1 MOL1         0.0832
       7    C3      19.513006   20.261625   21.286303 C.3        1 MOL1        -0.1685
       8    H5      19.016679   20.344220   20.309797 H          1 MOL1         0.0832
       9    H6      19.920842   21.262682   21.473716 H          1 MOL1         0.0832
      10    C4      18.425247   19.931558   22.345863 C.3        1 MOL1        -0.1761
      11    H7      17.913279   20.864711   22.613921 H          1 MOL1         0.0832
      12    H8      17.657715   19.305577   21.871482 H          1 MOL1         0.0832
      13    C5      18.865242   19.221904   23.650069 C.3        1 MOL1         0.1218
      14    H9      18.018232   19.283126   24.348353 H          1 MOL1         0.0789
      15    C6      20.092403   19.824462   24.377490 C.3        1 MOL1        -0.1761
      16    H10     19.777438   20.744834   24.885873 H          1 MOL1         0.0832
      17    H11     20.373917   19.130997   25.181139 H          1 MOL1         0.0832
      18    C7      21.360511   20.143230   23.537793 C.3        1 MOL1        -0.1685
      19    H12     21.308484   21.173749   23.165111 H          1 MOL1         0.0832
      20    H13     22.223412   20.138850   24.217579 H          1 MOL1         0.0832
      21    O1      19.094481   17.846124   23.389451 O.3        1 MOL1        -0.5509
      22    H14     19.850735   17.845882   22.768957 H          1 MOL1         0.3779
@<TRIPOS>BOND
    1     1     2    1
    2     1     3    1
    3     1     4    1
    4     4     5    1
    5     4     6    1
    6     4     7    1
    7     7     8    1
    8     7     9    1
    9     7    10    1
   10    10    11    1
   11    10    12    1
   12    10    13    1
   13    13    14    1
   14    13    15    1
   15    15    16    1
   16    15    17    1
   17     1    18    1
   18    15    18    1
   19    18    19    1
   20    18    20    1
   21    13    21    1
   22    21    22    1
@<TRIPOS>SUBSTRUCTURE
       1 MOL1            1 RESIDUE      1      MOL     
@<SCITEGIC>MOL_PROPERTY
VConf Rank
SciTegic.value.IntegerValue
856

@<SCITEGIC>MOL_PROPERTY
Conf_Id
SciTegic.value.IntegerValue
98

@<SCITEGIC>MOL_PROPERTY
Delta U+W
SciTegic.value.DoubleValue
0.930

@<SCITEGIC>MOL_PROPERTY
U+W
SciTegic.value.DoubleValue
7.353

@<SCITEGIC>MOL_PROPERTY
Grad RMS
SciTegic.value.DoubleValue
0.000000

@<SCITEGIC>MOL_PROPERTY
U
SciTegic.value.DoubleValue
8.455

@<SCITEGIC>MOL_PROPERTY
W
SciTegic.value.DoubleValue
-1.102

@<SCITEGIC>MOL_PROPERTY
W(PB)
SciTegic.value.DoubleValue
-3.101

@<SCITEGIC>MOL_PROPERTY
W(SA)
SciTegic.value.DoubleValue
2.000

@<SCITEGIC>MOL_PROPERTY
Valence
SciTegic.value.DoubleValue
15.601

@<SCITEGIC>MOL_PROPERTY
Coulomb
SciTegic.value.DoubleValue
-10.573

@<SCITEGIC>MOL_PROPERTY
VdW
SciTegic.value.DoubleValue
3.427

@<SCITEGIC>MOL_PROPERTY
VdW6
SciTegic.value.DoubleValue
-11.360

@<SCITEGIC>MOL_PROPERTY
VdW12
SciTegic.value.DoubleValue
14.787

@<SCITEGIC>MOL_PROPERTY
Bond
SciTegic.value.DoubleValue
0.471

@<SCITEGIC>MOL_PROPERTY
Angle
SciTegic.value.DoubleValue
5.445

@<SCITEGIC>MOL_PROPERTY
Pdih
SciTegic.value.DoubleValue
9.685

@<SCITEGIC>MOL_PROPERTY
Idih
SciTegic.value.DoubleValue
0.000

@<SCITEGIC>MOL_PROPERTY
Tether
SciTegic.value.DoubleValue
0.000

@<TRIPOS>MOLECULE
guest-5_confgen4.mol2 : confsearch ligand conformer 857
          22          22           1
SMALL
USER_CHARGES
 
@<TRIPOS>ATOM
       1    C1      19.369466   19.028777   21.144598 C.3        1 MOL1        -0.1685
       2    H1      19.670538   18.008702   21.415863 H          1 MOL1         0.0832
       3    H2      18.857191   18.927374   20.178159 H          1 MOL1         0.0832
       4    C2      20.628080   19.911068   20.945567 C.3        1 MOL1        -0.1685
       5    H3      21.231260   19.452024   20.150377 H          1 MOL1         0.0832
       6    H4      20.329699   20.896010   20.561535 H          1 MOL1         0.0832
       7    C3      21.536330   20.102682   22.191766 C.3        1 MOL1        -0.1685
       8    H5      21.375132   21.098133   22.625479 H          1 MOL1         0.0832
       9    H6      22.582199   20.106662   21.855945 H          1 MOL1         0.0832
      10    C4      21.372932   19.024797   23.295928 C.3        1 MOL1        -0.1761
      11    H7      21.471760   18.029625   22.844827 H          1 MOL1         0.0832
      12    H8      22.223188   19.106703   23.986394 H          1 MOL1         0.0832
      13    C5      20.050571   19.085649   24.115396 C.3        1 MOL1         0.1218
      14    H9      19.648967   18.064533   24.186839 H          1 MOL1         0.0789
      15    C6      18.940677   20.002297   23.542552 C.3        1 MOL1        -0.1761
      16    H10     18.115872   20.055870   24.264968 H          1 MOL1         0.0832
      17    H11     19.315774   21.029578   23.461394 H          1 MOL1         0.0832
      18    C7      18.350523   19.559079   22.180538 C.3        1 MOL1        -0.1685
      19    H12     17.601960   18.774418   22.355969 H          1 MOL1         0.0832
      20    H13     17.802740   20.406354   21.746108 H          1 MOL1         0.0832
      21    O1      20.353475   19.550767   25.425774 O.3        1 MOL1        -0.5509
      22    H14     19.516920   19.524700   25.935357 H          1 MOL1         0.3779
@<TRIPOS>BOND
    1     1     2    1
    2     1     3    1
    3     1     4    1
    4     4     5    1
    5     4     6    1
    6     4     7    1
    7     7     8    1
    8     7     9    1
    9     7    10    1
   10    10    11    1
   11    10    12    1
   12    10    13    1
   13    13    14    1
   14    13    15    1
   15    15    16    1
   16    15    17    1
   17     1    18    1
   18    15    18    1
   19    18    19    1
   20    18    20    1
   21    13    21    1
   22    21    22    1
@<TRIPOS>SUBSTRUCTURE
       1 MOL1            1 RESIDUE      1      MOL     
@<SCITEGIC>MOL_PROPERTY
VConf Rank
SciTegic.value.IntegerValue
857

@<SCITEGIC>MOL_PROPERTY
Conf_Id
SciTegic.value.IntegerValue
141

@<SCITEGIC>MOL_PROPERTY
Delta U+W
SciTegic.value.DoubleValue
0.000

@<SCITEGIC>MOL_PROPERTY
U+W
SciTegic.value.DoubleValue
6.423

@<SCITEGIC>MOL_PROPERTY
Grad RMS
SciTegic.value.DoubleValue
0.000000

@<SCITEGIC>MOL_PROPERTY
U
SciTegic.value.DoubleValue
8.781

@<SCITEGIC>MOL_PROPERTY
W
SciTegic.value.DoubleValue
-2.358

@<SCITEGIC>MOL_PROPERTY
W(PB)
SciTegic.value.DoubleValue
-4.373

@<SCITEGIC>MOL_PROPERTY
W(SA)
SciTegic.value.DoubleValue
2.015

@<SCITEGIC>MOL_PROPERTY
Valence
SciTegic.value.DoubleValue
13.328

@<SCITEGIC>MOL_PROPERTY
Coulomb
SciTegic.value.DoubleValue
-8.387

@<SCITEGIC>MOL_PROPERTY
VdW
SciTegic.value.DoubleValue
3.840

@<SCITEGIC>MOL_PROPERTY
VdW6
SciTegic.value.DoubleValue
-9.744

@<SCITEGIC>MOL_PROPERTY
VdW12
SciTegic.value.DoubleValue
13.584

@<SCITEGIC>MOL_PROPERTY
Bond
SciTegic.value.DoubleValue
0.436

@<SCITEGIC>MOL_PROPERTY
Angle
SciTegic.value.DoubleValue
3.478

@<SCITEGIC>MOL_PROPERTY
Pdih
SciTegic.value.DoubleValue
9.415

@<SCITEGIC>MOL_PROPERTY
Idih
SciTegic.value.DoubleValue
0.000

@<SCITEGIC>MOL_PROPERTY
Tether
SciTegic.value.DoubleValue
0.000

@<TRIPOS>MOLECULE
guest-5_confgen4.mol2 : confsearch ligand conformer 858
          22          22           1
SMALL
USER_CHARGES
 
@<TRIPOS>ATOM
       1    C1      18.307141   19.487277   22.179089 C.3        1 MOL1        -0.1685
       2    H1      18.022544   19.579494   23.236023 H          1 MOL1         0.0832
       3    H2      17.366087   19.443526   21.613927 H          1 MOL1         0.0832
       4    C2      19.069709   18.164650   21.924524 C.3        1 MOL1        -0.1685
       5    H3      18.369560   17.327406   22.049702 H          1 MOL1         0.0832
       6    H4      19.394561   18.127675   20.875723 H          1 MOL1         0.0832
       7    C3      20.286551   17.917375   22.845654 C.3        1 MOL1        -0.1685
       8    H5      20.777478   16.989207   22.522665 H          1 MOL1         0.0832
       9    H6      19.936618   17.730327   23.870115 H          1 MOL1         0.0832
      10    C4      21.338116   19.053686   22.859356 C.3        1 MOL1        -0.1761
      11    H7      22.239158   18.666167   23.352749 H          1 MOL1         0.0832
      12    H8      21.638630   19.315561   21.836561 H          1 MOL1         0.0832
      13    C5      20.850780   20.308321   23.618317 C.3        1 MOL1         0.1218
      14    H9      20.193919   19.981646   24.437255 H          1 MOL1         0.0789
      15    C6      20.073862   21.323111   22.748894 C.3        1 MOL1        -0.1761
      16    H10     19.515839   21.981484   23.427131 H          1 MOL1         0.0832
      17    H11     20.787005   21.970176   22.220838 H          1 MOL1         0.0832
      18    C7      19.090614   20.734238   21.706543 C.3        1 MOL1        -0.1685
      19    H12     18.375703   21.521720   21.431589 H          1 MOL1         0.0832
      20    H13     19.634415   20.495296   20.782477 H          1 MOL1         0.0832
      21    O1      21.978097   20.975222   24.172951 O.3        1 MOL1        -0.5509
      22    H14     22.412671   20.338943   24.778685 H          1 MOL1         0.3779
@<TRIPOS>BOND
    1     1     2    1
    2     1     3    1
    3     1     4    1
    4     4     5    1
    5     4     6    1
    6     4     7    1
    7     7     8    1
    8     7     9    1
    9     7    10    1
   10    10    11    1
   11    10    12    1
   12    10    13    1
   13    13    14    1
   14    13    15    1
   15    15    16    1
   16    15    17    1
   17     1    18    1
   18    15    18    1
   19    18    19    1
   20    18    20    1
   21    13    21    1
   22    21    22    1
@<TRIPOS>SUBSTRUCTURE
       1 MOL1            1 RESIDUE      1      MOL     
@<SCITEGIC>MOL_PROPERTY
VConf Rank
SciTegic.value.IntegerValue
858

@<SCITEGIC>MOL_PROPERTY
Conf_Id
SciTegic.value.IntegerValue
144

@<SCITEGIC>MOL_PROPERTY
Delta U+W
SciTegic.value.DoubleValue
-3.291

@<SCITEGIC>MOL_PROPERTY
U+W
SciTegic.value.DoubleValue
3.132

@<SCITEGIC>MOL_PROPERTY
Grad RMS
SciTegic.value.DoubleValue
0.000000

@<SCITEGIC>MOL_PROPERTY
U
SciTegic.value.DoubleValue
5.411

@<SCITEGIC>MOL_PROPERTY
W
SciTegic.value.DoubleValue
-2.279

@<SCITEGIC>MOL_PROPERTY
W(PB)
SciTegic.value.DoubleValue
-4.300

@<SCITEGIC>MOL_PROPERTY
W(SA)
SciTegic.value.DoubleValue
2.021

@<SCITEGIC>MOL_PROPERTY
Valence
SciTegic.value.DoubleValue
11.909

@<SCITEGIC>MOL_PROPERTY
Coulomb
SciTegic.value.DoubleValue
-8.733

@<SCITEGIC>MOL_PROPERTY
VdW
SciTegic.value.DoubleValue
2.236

@<SCITEGIC>MOL_PROPERTY
VdW6
SciTegic.value.DoubleValue
-8.936

@<SCITEGIC>MOL_PROPERTY
VdW12
SciTegic.value.DoubleValue
11.172

@<SCITEGIC>MOL_PROPERTY
Bond
SciTegic.value.DoubleValue
0.223

@<SCITEGIC>MOL_PROPERTY
Angle
SciTegic.value.DoubleValue
2.457

@<SCITEGIC>MOL_PROPERTY
Pdih
SciTegic.value.DoubleValue
9.228

@<SCITEGIC>MOL_PROPERTY
Idih
SciTegic.value.DoubleValue
0.000

@<SCITEGIC>MOL_PROPERTY
Tether
SciTegic.value.DoubleValue
0.000

@<TRIPOS>MOLECULE
guest-5_confgen4.mol2 : confsearch ligand conformer 859
          22          22           1
SMALL
USER_CHARGES
 
@<TRIPOS>ATOM
       1    C1      18.777376   18.653032   21.735785 C.3        1 MOL1        -0.1685
       2    H1      17.864158   18.306406   21.233020 H          1 MOL1         0.0832
       3    H2      19.549993   17.904848   21.512258 H          1 MOL1         0.0832
       4    C2      18.493085   18.714760   23.254812 C.3        1 MOL1        -0.1685
       5    H3      17.983660   19.658349   23.493350 H          1 MOL1         0.0832
       6    H4      17.778165   17.922187   23.515035 H          1 MOL1         0.0832
       7    C3      19.736334   18.551901   24.162409 C.3        1 MOL1        -0.1685
       8    H5      19.947218   17.481428   24.290984 H          1 MOL1         0.0832
       9    H6      19.481421   18.927781   25.162785 H          1 MOL1         0.0832
      10    C4      21.034559   19.244389   23.679491 C.3        1 MOL1        -0.1761
      11    H7      21.708753   19.332999   24.542092 H          1 MOL1         0.0832
      12    H8      21.549118   18.588073   22.965788 H          1 MOL1         0.0832
      13    C5      20.831209   20.635799   23.039005 C.3        1 MOL1         0.1218
      14    H9      19.999513   21.152996   23.538263 H          1 MOL1         0.0789
      15    C6      20.554493   20.554401   21.520526 C.3        1 MOL1        -0.1761
      16    H10     20.672317   21.556711   21.087371 H          1 MOL1         0.0832
      17    H11     21.316979   19.925845   21.042386 H          1 MOL1         0.0832
      18    C7      19.150715   20.029866   21.135836 C.3        1 MOL1        -0.1685
      19    H12     18.393291   20.771264   21.424910 H          1 MOL1         0.0832
      20    H13     19.098638   19.960456   20.040730 H          1 MOL1         0.0832
      21    O1      22.020260   21.391746   23.225857 O.3        1 MOL1        -0.5509
      22    H14     22.734818   20.900390   22.770734 H          1 MOL1         0.3779
@<TRIPOS>BOND
    1     1     2    1
    2     1     3    1
    3     1     4    1
    4     4     5    1
    5     4     6    1
    6     4     7    1
    7     7     8    1
    8     7     9    1
    9     7    10    1
   10    10    11    1
   11    10    12    1
   12    10    13    1
   13    13    14    1
   14    13    15    1
   15    15    16    1
   16    15    17    1
   17     1    18    1
   18    15    18    1
   19    18    19    1
   20    18    20    1
   21    13    21    1
   22    21    22    1
@<TRIPOS>SUBSTRUCTURE
       1 MOL1            1 RESIDUE      1      MOL     
@<SCITEGIC>MOL_PROPERTY
VConf Rank
SciTegic.value.IntegerValue
859

@<SCITEGIC>MOL_PROPERTY
Conf_Id
SciTegic.value.IntegerValue
76

@<SCITEGIC>MOL_PROPERTY
Delta U+W
SciTegic.value.DoubleValue
-3.175

@<SCITEGIC>MOL_PROPERTY
U+W
SciTegic.value.DoubleValue
3.248

@<SCITEGIC>MOL_PROPERTY
Grad RMS
SciTegic.value.DoubleValue
0.000000

@<SCITEGIC>MOL_PROPERTY
U
SciTegic.value.DoubleValue
5.336

@<SCITEGIC>MOL_PROPERTY
W
SciTegic.value.DoubleValue
-2.088

@<SCITEGIC>MOL_PROPERTY
W(PB)
SciTegic.value.DoubleValue
-4.098

@<SCITEGIC>MOL_PROPERTY
W(SA)
SciTegic.value.DoubleValue
2.010

@<SCITEGIC>MOL_PROPERTY
Valence
SciTegic.value.DoubleValue
12.390

@<SCITEGIC>MOL_PROPERTY
Coulomb
SciTegic.value.DoubleValue
-9.270

@<SCITEGIC>MOL_PROPERTY
VdW
SciTegic.value.DoubleValue
2.216

@<SCITEGIC>MOL_PROPERTY
VdW6
SciTegic.value.DoubleValue
-8.967

@<SCITEGIC>MOL_PROPERTY
VdW12
SciTegic.value.DoubleValue
11.183

@<SCITEGIC>MOL_PROPERTY
Bond
SciTegic.value.DoubleValue
0.218

@<SCITEGIC>MOL_PROPERTY
Angle
SciTegic.value.DoubleValue
2.426

@<SCITEGIC>MOL_PROPERTY
Pdih
SciTegic.value.DoubleValue
9.745

@<SCITEGIC>MOL_PROPERTY
Idih
SciTegic.value.DoubleValue
0.000

@<SCITEGIC>MOL_PROPERTY
Tether
SciTegic.value.DoubleValue
0.000

@<TRIPOS>MOLECULE
guest-5_confgen4.mol2 : confsearch ligand conformer 860
          22          22           1
SMALL
USER_CHARGES
 
@<TRIPOS>ATOM
       1    C1      18.467479   19.606876   23.662826 C.3        1 MOL1        -0.1685
       2    H1      18.014344   20.479662   24.152412 H          1 MOL1         0.0832
       3    H2      17.748639   18.786213   23.791654 H          1 MOL1         0.0832
       4    C2      19.772529   19.253124   24.415406 C.3        1 MOL1        -0.1685
       5    H3      20.267369   20.176618   24.745208 H          1 MOL1         0.0832
       6    H4      19.499347   18.721246   25.336960 H          1 MOL1         0.0832
       7    C3      20.775493   18.389452   23.615607 C.3        1 MOL1        -0.1685
       8    H5      20.251019   17.648431   22.997019 H          1 MOL1         0.0832
       9    H6      21.378834   17.815950   24.332103 H          1 MOL1         0.0832
      10    C4      21.745449   19.238380   22.755033 C.3        1 MOL1        -0.1761
      11    H7      22.199887   20.014908   23.383524 H          1 MOL1         0.0832
      12    H8      22.576428   18.598722   22.429875 H          1 MOL1         0.0832
      13    C5      21.138925   19.905930   21.499802 C.3        1 MOL1         0.1218
      14    H9      21.896287   20.603915   21.114682 H          1 MOL1         0.0789
      15    C6      19.847868   20.725736   21.747948 C.3        1 MOL1        -0.1761
      16    H10     20.038202   21.500336   22.502035 H          1 MOL1         0.0832
      17    H11     19.615474   21.265914   20.821132 H          1 MOL1         0.0832
      18    C7      18.603649   19.890751   22.147868 C.3        1 MOL1        -0.1685
      19    H12     17.700367   20.424221   21.822424 H          1 MOL1         0.0832
      20    H13     18.594419   18.940964   21.597178 H          1 MOL1         0.0832
      21    O1      20.904974   18.912903   20.506229 O.3        1 MOL1        -0.5509
      22    H14     20.475238   19.367556   19.753301 H          1 MOL1         0.3779
@<TRIPOS>BOND
    1     1     2    1
    2     1     3    1
    3     1     4    1
    4     4     5    1
    5     4     6    1
    6     4     7    1
    7     7     8    1
    8     7     9    1
    9     7    10    1
   10    10    11    1
   11    10    12    1
   12    10    13    1
   13    13    14    1
   14    13    15    1
   15    15    16    1
   16    15    17    1
   17     1    18    1
   18    15    18    1
   19    18    19    1
   20    18    20    1
   21    13    21    1
   22    21    22    1
@<TRIPOS>SUBSTRUCTURE
       1 MOL1            1 RESIDUE      1      MOL     
@<SCITEGIC>MOL_PROPERTY
VConf Rank
SciTegic.value.IntegerValue
860

@<SCITEGIC>MOL_PROPERTY
Conf_Id
SciTegic.value.IntegerValue
95

@<SCITEGIC>MOL_PROPERTY
Delta U+W
SciTegic.value.DoubleValue
-2.289

@<SCITEGIC>MOL_PROPERTY
U+W
SciTegic.value.DoubleValue
4.134

@<SCITEGIC>MOL_PROPERTY
Grad RMS
SciTegic.value.DoubleValue
0.000000

@<SCITEGIC>MOL_PROPERTY
U
SciTegic.value.DoubleValue
6.373

@<SCITEGIC>MOL_PROPERTY
W
SciTegic.value.DoubleValue
-2.240

@<SCITEGIC>MOL_PROPERTY
W(PB)
SciTegic.value.DoubleValue
-4.254

@<SCITEGIC>MOL_PROPERTY
W(SA)
SciTegic.value.DoubleValue
2.015

@<SCITEGIC>MOL_PROPERTY
Valence
SciTegic.value.DoubleValue
12.093

@<SCITEGIC>MOL_PROPERTY
Coulomb
SciTegic.value.DoubleValue
-8.058

@<SCITEGIC>MOL_PROPERTY
VdW
SciTegic.value.DoubleValue
2.339

@<SCITEGIC>MOL_PROPERTY
VdW6
SciTegic.value.DoubleValue
-9.683

@<SCITEGIC>MOL_PROPERTY
VdW12
SciTegic.value.DoubleValue
12.022

@<SCITEGIC>MOL_PROPERTY
Bond
SciTegic.value.DoubleValue
0.268

@<SCITEGIC>MOL_PROPERTY
Angle
SciTegic.value.DoubleValue
3.005

@<SCITEGIC>MOL_PROPERTY
Pdih
SciTegic.value.DoubleValue
8.820

@<SCITEGIC>MOL_PROPERTY
Idih
SciTegic.value.DoubleValue
0.000

@<SCITEGIC>MOL_PROPERTY
Tether
SciTegic.value.DoubleValue
0.000

@<TRIPOS>MOLECULE
guest-5_confgen4.mol2 : confsearch ligand conformer 861
          22          22           1
SMALL
USER_CHARGES
 
@<TRIPOS>ATOM
       1    C1      18.951368   18.066688   22.840917 C.3        1 MOL1        -0.1685
       2    H1      18.803888   17.418147   23.715216 H          1 MOL1         0.0832
       3    H2      18.304206   17.656941   22.053466 H          1 MOL1         0.0832
       4    C2      20.426775   17.944267   22.390898 C.3        1 MOL1        -0.1685
       5    H3      21.070847   17.835561   23.273980 H          1 MOL1         0.0832
       6    H4      20.534190   17.004574   21.832115 H          1 MOL1         0.0832
       7    C3      20.944205   19.110240   21.516660 C.3        1 MOL1        -0.1685
       8    H5      20.164022   19.461281   20.827528 H          1 MOL1         0.0832
       9    H6      21.758235   18.727619   20.886277 H          1 MOL1         0.0832
      10    C4      21.509396   20.282570   22.357795 C.3        1 MOL1        -0.1761
      11    H7      22.221544   19.886150   23.093046 H          1 MOL1         0.0832
      12    H8      22.101377   20.932636   21.700562 H          1 MOL1         0.0832
      13    C5      20.469293   21.154950   23.097304 C.3        1 MOL1         0.1218
      14    H9      21.031623   21.814985   23.773498 H          1 MOL1         0.0789
      15    C6      19.453766   20.372417   23.967178 C.3        1 MOL1        -0.1761
      16    H10     19.986536   19.764897   24.709852 H          1 MOL1         0.0832
      17    H11     18.880302   21.112121   24.540593 H          1 MOL1         0.0832
      18    C7      18.450487   19.491405   23.178071 C.3        1 MOL1        -0.1685
      19    H12     17.528147   19.394257   23.766346 H          1 MOL1         0.0832
      20    H13     18.151799   20.002726   22.253432 H          1 MOL1         0.0832
      21    O1      19.780026   21.969691   22.153905 O.3        1 MOL1        -0.5509
      22    H14     20.464303   22.425691   21.622854 H          1 MOL1         0.3779
@<TRIPOS>BOND
    1     1     2    1
    2     1     3    1
    3     1     4    1
    4     4     5    1
    5     4     6    1
    6     4     7    1
    7     7     8    1
    8     7     9    1
    9     7    10    1
   10    10    11    1
   11    10    12    1
   12    10    13    1
   13    13    14    1
   14    13    15    1
   15    15    16    1
   16    15    17    1
   17     1    18    1
   18    15    18    1
   19    18    19    1
   20    18    20    1
   21    13    21    1
   22    21    22    1
@<TRIPOS>SUBSTRUCTURE
       1 MOL1            1 RESIDUE      1      MOL     
@<SCITEGIC>MOL_PROPERTY
VConf Rank
SciTegic.value.IntegerValue
861

@<SCITEGIC>MOL_PROPERTY
Conf_Id
SciTegic.value.IntegerValue
41

@<SCITEGIC>MOL_PROPERTY
Delta U+W
SciTegic.value.DoubleValue
-2.114

@<SCITEGIC>MOL_PROPERTY
U+W
SciTegic.value.DoubleValue
4.310

@<SCITEGIC>MOL_PROPERTY
Grad RMS
SciTegic.value.DoubleValue
0.000000

@<SCITEGIC>MOL_PROPERTY
U
SciTegic.value.DoubleValue
6.598

@<SCITEGIC>MOL_PROPERTY
W
SciTegic.value.DoubleValue
-2.289

@<SCITEGIC>MOL_PROPERTY
W(PB)
SciTegic.value.DoubleValue
-4.294

@<SCITEGIC>MOL_PROPERTY
W(SA)
SciTegic.value.DoubleValue
2.005

@<SCITEGIC>MOL_PROPERTY
Valence
SciTegic.value.DoubleValue
12.082

@<SCITEGIC>MOL_PROPERTY
Coulomb
SciTegic.value.DoubleValue
-7.801

@<SCITEGIC>MOL_PROPERTY
VdW
SciTegic.value.DoubleValue
2.317

@<SCITEGIC>MOL_PROPERTY
VdW6
SciTegic.value.DoubleValue
-9.658

@<SCITEGIC>MOL_PROPERTY
VdW12
SciTegic.value.DoubleValue
11.975

@<SCITEGIC>MOL_PROPERTY
Bond
SciTegic.value.DoubleValue
0.267

@<SCITEGIC>MOL_PROPERTY
Angle
SciTegic.value.DoubleValue
3.051

@<SCITEGIC>MOL_PROPERTY
Pdih
SciTegic.value.DoubleValue
8.764

@<SCITEGIC>MOL_PROPERTY
Idih
SciTegic.value.DoubleValue
0.000

@<SCITEGIC>MOL_PROPERTY
Tether
SciTegic.value.DoubleValue
0.000

@<TRIPOS>MOLECULE
guest-5_confgen4.mol2 : confsearch ligand conformer 862
          22          22           1
SMALL
USER_CHARGES
 
@<TRIPOS>ATOM
       1    C1      21.531446   18.858063   23.188231 C.3        1 MOL1        -0.1685
       2    H1      22.351698   18.185956   23.474600 H          1 MOL1         0.0832
       3    H2      21.998936   19.810937   22.904223 H          1 MOL1         0.0832
       4    C2      20.618352   19.043321   24.420840 C.3        1 MOL1        -0.1685
       5    H3      20.113372   18.095125   24.649974 H          1 MOL1         0.0832
       6    H4      21.247462   19.267814   25.292839 H          1 MOL1         0.0832
       7    C3      19.567274   20.166222   24.281012 C.3        1 MOL1        -0.1685
       8    H5      20.073487   21.140576   24.264522 H          1 MOL1         0.0832
       9    H6      18.952737   20.169632   25.191209 H          1 MOL1         0.0832
      10    C4      18.623218   20.037421   23.054899 C.3        1 MOL1        -0.1761
      11    H7      18.175863   19.035732   23.027505 H          1 MOL1         0.0832
      12    H8      17.786525   20.731531   23.205699 H          1 MOL1         0.0832
      13    C5      19.250689   20.371307   21.676918 C.3        1 MOL1         0.1218
      14    H9      18.414929   20.546318   20.983987 H          1 MOL1         0.0789
      15    C6      20.113807   19.252745   21.037397 C.3        1 MOL1        -0.1761
      16    H10     19.476672   18.687509   20.344843 H          1 MOL1         0.0832
      17    H11     20.886368   19.713016   20.407499 H          1 MOL1         0.0832
      18    C7      20.790989   18.232365   21.985632 C.3        1 MOL1        -0.1685
      19    H12     20.048860   17.505804   22.343079 H          1 MOL1         0.0832
      20    H13     21.510902   17.650760   21.393907 H          1 MOL1         0.0832
      21    O1      20.007179   21.576668   21.752720 O.3        1 MOL1        -0.5509
      22    H14     20.343122   21.756808   20.851276 H          1 MOL1         0.3779
@<TRIPOS>BOND
    1     1     2    1
    2     1     3    1
    3     1     4    1
    4     4     5    1
    5     4     6    1
    6     4     7    1
    7     7     8    1
    8     7     9    1
    9     7    10    1
   10    10    11    1
   11    10    12    1
   12    10    13    1
   13    13    14    1
   14    13    15    1
   15    15    16    1
   16    15    17    1
   17     1    18    1
   18    15    18    1
   19    18    19    1
   20    18    20    1
   21    13    21    1
   22    21    22    1
@<TRIPOS>SUBSTRUCTURE
       1 MOL1            1 RESIDUE      1      MOL     
@<SCITEGIC>MOL_PROPERTY
VConf Rank
SciTegic.value.IntegerValue
862

@<SCITEGIC>MOL_PROPERTY
Conf_Id
SciTegic.value.IntegerValue
104

@<SCITEGIC>MOL_PROPERTY
Delta U+W
SciTegic.value.DoubleValue
-1.172

@<SCITEGIC>MOL_PROPERTY
U+W
SciTegic.value.DoubleValue
5.252

@<SCITEGIC>MOL_PROPERTY
Grad RMS
SciTegic.value.DoubleValue
0.000000

@<SCITEGIC>MOL_PROPERTY
U
SciTegic.value.DoubleValue
7.482

@<SCITEGIC>MOL_PROPERTY
W
SciTegic.value.DoubleValue
-2.230

@<SCITEGIC>MOL_PROPERTY
W(PB)
SciTegic.value.DoubleValue
-4.220

@<SCITEGIC>MOL_PROPERTY
W(SA)
SciTegic.value.DoubleValue
1.990

@<SCITEGIC>MOL_PROPERTY
Valence
SciTegic.value.DoubleValue
12.309

@<SCITEGIC>MOL_PROPERTY
Coulomb
SciTegic.value.DoubleValue
-7.084

@<SCITEGIC>MOL_PROPERTY
VdW
SciTegic.value.DoubleValue
2.258

@<SCITEGIC>MOL_PROPERTY
VdW6
SciTegic.value.DoubleValue
-9.770

@<SCITEGIC>MOL_PROPERTY
VdW12
SciTegic.value.DoubleValue
12.028

@<SCITEGIC>MOL_PROPERTY
Bond
SciTegic.value.DoubleValue
0.284

@<SCITEGIC>MOL_PROPERTY
Angle
SciTegic.value.DoubleValue
3.491

@<SCITEGIC>MOL_PROPERTY
Pdih
SciTegic.value.DoubleValue
8.535

@<SCITEGIC>MOL_PROPERTY
Idih
SciTegic.value.DoubleValue
0.000

@<SCITEGIC>MOL_PROPERTY
Tether
SciTegic.value.DoubleValue
0.000

@<TRIPOS>MOLECULE
guest-5_confgen4.mol2 : confsearch ligand conformer 863
          22          22           1
SMALL
USER_CHARGES
 
@<TRIPOS>ATOM
       1    C1      21.343076   20.283281   23.434075 C.3        1 MOL1        -0.1685
       2    H1      21.315621   21.180257   22.800700 H          1 MOL1         0.0832
       3    H2      22.190930   20.422644   24.118662 H          1 MOL1         0.0832
       4    C2      21.620597   19.018960   22.589112 C.3        1 MOL1        -0.1685
       5    H3      22.697529   18.968710   22.377120 H          1 MOL1         0.0832
       6    H4      21.407732   18.125588   23.190704 H          1 MOL1         0.0832
       7    C3      20.869090   18.937136   21.236257 C.3        1 MOL1        -0.1685
       8    H5      20.771928   17.879199   20.955825 H          1 MOL1         0.0832
       9    H6      21.502228   19.387186   20.459392 H          1 MOL1         0.0832
      10    C4      19.474906   19.615941   21.154551 C.3        1 MOL1        -0.1761
      11    H7      19.609498   20.698050   21.028531 H          1 MOL1         0.0832
      12    H8      18.986819   19.277383   20.231430 H          1 MOL1         0.0832
      13    C5      18.501804   19.370336   22.330447 C.3        1 MOL1         0.1218
      14    H9      17.484791   19.560506   21.958425 H          1 MOL1         0.0789
      15    C6      18.733088   20.337936   23.513040 C.3        1 MOL1        -0.1761
      16    H10     18.665007   21.368918   23.142227 H          1 MOL1         0.0832
      17    H11     17.899591   20.221910   24.218068 H          1 MOL1         0.0832
      18    C7      20.060878   20.171785   24.292886 C.3        1 MOL1        -0.1685
      19    H12     20.095725   20.950191   25.067212 H          1 MOL1         0.0832
      20    H13     20.057369   19.216496   24.835000 H          1 MOL1         0.0832
      21    O1      18.586409   18.025220   22.775053 O.3        1 MOL1        -0.5509
      22    H14     19.529094   17.909888   23.008141 H          1 MOL1         0.3779
@<TRIPOS>BOND
    1     1     2    1
    2     1     3    1
    3     1     4    1
    4     4     5    1
    5     4     6    1
    6     4     7    1
    7     7     8    1
    8     7     9    1
    9     7    10    1
   10    10    11    1
   11    10    12    1
   12    10    13    1
   13    13    14    1
   14    13    15    1
   15    15    16    1
   16    15    17    1
   17     1    18    1
   18    15    18    1
   19    18    19    1
   20    18    20    1
   21    13    21    1
   22    21    22    1
@<TRIPOS>SUBSTRUCTURE
       1 MOL1            1 RESIDUE      1      MOL     
@<SCITEGIC>MOL_PROPERTY
VConf Rank
SciTegic.value.IntegerValue
863

@<SCITEGIC>MOL_PROPERTY
Conf_Id
SciTegic.value.IntegerValue
99

@<SCITEGIC>MOL_PROPERTY
Delta U+W
SciTegic.value.DoubleValue
-3.852

@<SCITEGIC>MOL_PROPERTY
U+W
SciTegic.value.DoubleValue
2.572

@<SCITEGIC>MOL_PROPERTY
Grad RMS
SciTegic.value.DoubleValue
0.000000

@<SCITEGIC>MOL_PROPERTY
U
SciTegic.value.DoubleValue
3.922

@<SCITEGIC>MOL_PROPERTY
W
SciTegic.value.DoubleValue
-1.350

@<SCITEGIC>MOL_PROPERTY
W(PB)
SciTegic.value.DoubleValue
-3.345

@<SCITEGIC>MOL_PROPERTY
W(SA)
SciTegic.value.DoubleValue
1.995

@<SCITEGIC>MOL_PROPERTY
Valence
SciTegic.value.DoubleValue
12.571

@<SCITEGIC>MOL_PROPERTY
Coulomb
SciTegic.value.DoubleValue
-10.581

@<SCITEGIC>MOL_PROPERTY
VdW
SciTegic.value.DoubleValue
1.932

@<SCITEGIC>MOL_PROPERTY
VdW6
SciTegic.value.DoubleValue
-10.483

@<SCITEGIC>MOL_PROPERTY
VdW12
SciTegic.value.DoubleValue
12.415

@<SCITEGIC>MOL_PROPERTY
Bond
SciTegic.value.DoubleValue
0.268

@<SCITEGIC>MOL_PROPERTY
Angle
SciTegic.value.DoubleValue
3.728

@<SCITEGIC>MOL_PROPERTY
Pdih
SciTegic.value.DoubleValue
8.575

@<SCITEGIC>MOL_PROPERTY
Idih
SciTegic.value.DoubleValue
0.000

@<SCITEGIC>MOL_PROPERTY
Tether
SciTegic.value.DoubleValue
0.000

@<TRIPOS>MOLECULE
guest-5_confgen4.mol2 : confsearch ligand conformer 864
          22          22           1
SMALL
USER_CHARGES
 
@<TRIPOS>ATOM
       1    C1      20.963149   19.873810   21.294466 C.3        1 MOL1        -0.1685
       2    H1      21.649862   19.547377   20.501271 H          1 MOL1         0.0832
       3    H2      20.724140   20.917474   21.050141 H          1 MOL1         0.0832
       4    C2      21.728624   19.801559   22.648231 C.3        1 MOL1        -0.1685
       5    H3      22.746705   19.444010   22.440966 H          1 MOL1         0.0832
       6    H4      21.861587   20.810083   23.062059 H          1 MOL1         0.0832
       7    C3      21.113252   18.874700   23.727584 C.3        1 MOL1        -0.1685
       8    H5      21.840020   18.763265   24.543743 H          1 MOL1         0.0832
       9    H6      20.995995   17.861814   23.322760 H          1 MOL1         0.0832
      10    C4      19.770432   19.350093   24.348602 C.3        1 MOL1        -0.1761
      11    H7      19.258686   18.475243   24.769903 H          1 MOL1         0.0832
      12    H8      19.995178   19.996216   25.207678 H          1 MOL1         0.0832
      13    C5      18.772999   20.111239   23.440889 C.3        1 MOL1         0.1218
      14    H9      17.817805   20.156315   23.983428 H          1 MOL1         0.0789
      15    C6      18.477162   19.472562   22.061499 C.3        1 MOL1        -0.1761
      16    H10     17.812369   18.612325   22.212443 H          1 MOL1         0.0832
      17    H11     17.888468   20.195819   21.481554 H          1 MOL1         0.0832
      18    C7      19.679974   19.010137   21.193048 C.3        1 MOL1        -0.1685
      19    H12     19.919173   17.963569   21.418981 H          1 MOL1         0.0832
      20    H13     19.352395   18.998206   20.144585 H          1 MOL1         0.0832
      21    O1      19.216271   21.447151   23.261752 O.3        1 MOL1        -0.5509
      22    H14     20.061625   21.352935   22.778602 H          1 MOL1         0.3779
@<TRIPOS>BOND
    1     1     2    1
    2     1     3    1
    3     1     4    1
    4     4     5    1
    5     4     6    1
    6     4     7    1
    7     7     8    1
    8     7     9    1
    9     7    10    1
   10    10    11    1
   11    10    12    1
   12    10    13    1
   13    13    14    1
   14    13    15    1
   15    15    16    1
   16    15    17    1
   17     1    18    1
   18    15    18    1
   19    18    19    1
   20    18    20    1
   21    13    21    1
   22    21    22    1
@<TRIPOS>SUBSTRUCTURE
       1 MOL1            1 RESIDUE      1      MOL     
@<SCITEGIC>MOL_PROPERTY
VConf Rank
SciTegic.value.IntegerValue
864

@<SCITEGIC>MOL_PROPERTY
Conf_Id
SciTegic.value.IntegerValue
98

@<SCITEGIC>MOL_PROPERTY
Delta U+W
SciTegic.value.DoubleValue
0.930

@<SCITEGIC>MOL_PROPERTY
U+W
SciTegic.value.DoubleValue
7.353

@<SCITEGIC>MOL_PROPERTY
Grad RMS
SciTegic.value.DoubleValue
0.000000

@<SCITEGIC>MOL_PROPERTY
U
SciTegic.value.DoubleValue
8.455

@<SCITEGIC>MOL_PROPERTY
W
SciTegic.value.DoubleValue
-1.102

@<SCITEGIC>MOL_PROPERTY
W(PB)
SciTegic.value.DoubleValue
-3.101

@<SCITEGIC>MOL_PROPERTY
W(SA)
SciTegic.value.DoubleValue
2.000

@<SCITEGIC>MOL_PROPERTY
Valence
SciTegic.value.DoubleValue
15.601

@<SCITEGIC>MOL_PROPERTY
Coulomb
SciTegic.value.DoubleValue
-10.573

@<SCITEGIC>MOL_PROPERTY
VdW
SciTegic.value.DoubleValue
3.427

@<SCITEGIC>MOL_PROPERTY
VdW6
SciTegic.value.DoubleValue
-11.360

@<SCITEGIC>MOL_PROPERTY
VdW12
SciTegic.value.DoubleValue
14.787

@<SCITEGIC>MOL_PROPERTY
Bond
SciTegic.value.DoubleValue
0.471

@<SCITEGIC>MOL_PROPERTY
Angle
SciTegic.value.DoubleValue
5.445

@<SCITEGIC>MOL_PROPERTY
Pdih
SciTegic.value.DoubleValue
9.685

@<SCITEGIC>MOL_PROPERTY
Idih
SciTegic.value.DoubleValue
0.000

@<SCITEGIC>MOL_PROPERTY
Tether
SciTegic.value.DoubleValue
0.000

@<TRIPOS>MOLECULE
guest-5_confgen4.mol2 : confsearch ligand conformer 865
          22          22           1
SMALL
USER_CHARGES
 
@<TRIPOS>ATOM
       1    C1      21.196847   20.635821   23.242347 C.3        1 MOL1        -0.1685
       2    H1      21.704776   19.771932   23.690102 H          1 MOL1         0.0832
       3    H2      21.846164   21.494049   23.462672 H          1 MOL1         0.0832
       4    C2      19.830546   20.859282   23.939088 C.3        1 MOL1        -0.1685
       5    H3      20.027319   21.025911   25.006978 H          1 MOL1         0.0832
       6    H4      19.378110   21.790202   23.571239 H          1 MOL1         0.0832
       7    C3      18.798134   19.704877   23.812129 C.3        1 MOL1        -0.1685
       8    H5      18.031566   19.965359   23.070821 H          1 MOL1         0.0832
       9    H6      18.255364   19.624637   24.763757 H          1 MOL1         0.0832
      10    C4      19.402257   18.318166   23.466036 C.3        1 MOL1        -0.1761
      11    H7      20.211028   18.091637   24.171869 H          1 MOL1         0.0832
      12    H8      18.638851   17.551960   23.657158 H          1 MOL1         0.0832
      13    C5      19.931296   18.150673   22.011411 C.3        1 MOL1         0.1218
      14    H9      20.918908   17.670054   22.063323 H          1 MOL1         0.0789
      15    C6      20.071614   19.455255   21.187619 C.3        1 MOL1        -0.1761
      16    H10     20.332174   19.196174   20.153190 H          1 MOL1         0.0832
      17    H11     19.098047   19.955396   21.119685 H          1 MOL1         0.0832
      18    C7      21.131994   20.457993   21.707156 C.3        1 MOL1        -0.1685
      19    H12     22.123643   20.139343   21.358002 H          1 MOL1         0.0832
      20    H13     20.947014   21.434253   21.238786 H          1 MOL1         0.0832
      21    O1      19.042080   17.293583   21.304397 O.3        1 MOL1        -0.5509
      22    H14     19.427521   17.159244   20.413573 H          1 MOL1         0.3779
@<TRIPOS>BOND
    1     1     2    1
    2     1     3    1
    3     1     4    1
    4     4     5    1
    5     4     6    1
    6     4     7    1
    7     7     8    1
    8     7     9    1
    9     7    10    1
   10    10    11    1
   11    10    12    1
   12    10    13    1
   13    13    14    1
   14    13    15    1
   15    15    16    1
   16    15    17    1
   17     1    18    1
   18    15    18    1
   19    18    19    1
   20    18    20    1
   21    13    21    1
   22    21    22    1
@<TRIPOS>SUBSTRUCTURE
       1 MOL1            1 RESIDUE      1      MOL     
@<SCITEGIC>MOL_PROPERTY
VConf Rank
SciTegic.value.IntegerValue
865

@<SCITEGIC>MOL_PROPERTY
Conf_Id
SciTegic.value.IntegerValue
141

@<SCITEGIC>MOL_PROPERTY
Delta U+W
SciTegic.value.DoubleValue
0.000

@<SCITEGIC>MOL_PROPERTY
U+W
SciTegic.value.DoubleValue
6.423

@<SCITEGIC>MOL_PROPERTY
Grad RMS
SciTegic.value.DoubleValue
0.000000

@<SCITEGIC>MOL_PROPERTY
U
SciTegic.value.DoubleValue
8.781

@<SCITEGIC>MOL_PROPERTY
W
SciTegic.value.DoubleValue
-2.358

@<SCITEGIC>MOL_PROPERTY
W(PB)
SciTegic.value.DoubleValue
-4.373

@<SCITEGIC>MOL_PROPERTY
W(SA)
SciTegic.value.DoubleValue
2.015

@<SCITEGIC>MOL_PROPERTY
Valence
SciTegic.value.DoubleValue
13.328

@<SCITEGIC>MOL_PROPERTY
Coulomb
SciTegic.value.DoubleValue
-8.387

@<SCITEGIC>MOL_PROPERTY
VdW
SciTegic.value.DoubleValue
3.840

@<SCITEGIC>MOL_PROPERTY
VdW6
SciTegic.value.DoubleValue
-9.744

@<SCITEGIC>MOL_PROPERTY
VdW12
SciTegic.value.DoubleValue
13.584

@<SCITEGIC>MOL_PROPERTY
Bond
SciTegic.value.DoubleValue
0.436

@<SCITEGIC>MOL_PROPERTY
Angle
SciTegic.value.DoubleValue
3.478

@<SCITEGIC>MOL_PROPERTY
Pdih
SciTegic.value.DoubleValue
9.415

@<SCITEGIC>MOL_PROPERTY
Idih
SciTegic.value.DoubleValue
0.000

@<SCITEGIC>MOL_PROPERTY
Tether
SciTegic.value.DoubleValue
0.000

@<TRIPOS>MOLECULE
guest-5_confgen4.mol2 : confsearch ligand conformer 866
          22          22           1
SMALL
USER_CHARGES
 
@<TRIPOS>ATOM
       1    C1      18.466200   20.458555   22.473150 C.3        1 MOL1        -0.1685
       2    H1      18.026792   19.535614   22.071021 H          1 MOL1         0.0832
       3    H2      17.648596   21.191162   22.514585 H          1 MOL1         0.0832
       4    C2      19.549461   21.017281   21.519197 C.3        1 MOL1        -0.1685
       5    H3      19.058811   21.374293   20.603414 H          1 MOL1         0.0832
       6    H4      20.013301   21.903227   21.973984 H          1 MOL1         0.0832
       7    C3      20.653235   20.013094   21.114692 C.3        1 MOL1        -0.1685
       8    H5      21.390543   20.544819   20.497869 H          1 MOL1         0.0832
       9    H6      20.222005   19.238915   20.465349 H          1 MOL1         0.0832
      10    C4      21.391604   19.341007   22.298030 C.3        1 MOL1        -0.1761
      11    H7      22.283326   18.844158   21.893731 H          1 MOL1         0.0832
      12    H8      21.757247   20.096420   23.005599 H          1 MOL1         0.0832
      13    C5      20.520611   18.293309   23.026952 C.3        1 MOL1         0.1218
      14    H9      19.855488   17.824333   22.287685 H          1 MOL1         0.0789
      15    C6      19.649826   18.864983   24.168976 C.3        1 MOL1        -0.1761
      16    H10     18.864010   18.129979   24.386029 H          1 MOL1         0.0832
      17    H11     20.253113   18.939200   25.083660 H          1 MOL1         0.0832
      18    C7      18.986528   20.241478   23.913351 C.3        1 MOL1        -0.1685
      19    H12     18.148713   20.350148   24.615548 H          1 MOL1         0.0832
      20    H13     19.692097   21.042916   24.171380 H          1 MOL1         0.0832
      21    O1      21.370173   17.294497   23.578166 O.3        1 MOL1        -0.5509
      22    H14     21.857379   16.893122   22.828402 H          1 MOL1         0.3779
@<TRIPOS>BOND
    1     1     2    1
    2     1     3    1
    3     1     4    1
    4     4     5    1
    5     4     6    1
    6     4     7    1
    7     7     8    1
    8     7     9    1
    9     7    10    1
   10    10    11    1
   11    10    12    1
   12    10    13    1
   13    13    14    1
   14    13    15    1
   15    15    16    1
   16    15    17    1
   17     1    18    1
   18    15    18    1
   19    18    19    1
   20    18    20    1
   21    13    21    1
   22    21    22    1
@<TRIPOS>SUBSTRUCTURE
       1 MOL1            1 RESIDUE      1      MOL     
@<SCITEGIC>MOL_PROPERTY
VConf Rank
SciTegic.value.IntegerValue
866

@<SCITEGIC>MOL_PROPERTY
Conf_Id
SciTegic.value.IntegerValue
144

@<SCITEGIC>MOL_PROPERTY
Delta U+W
SciTegic.value.DoubleValue
-3.291

@<SCITEGIC>MOL_PROPERTY
U+W
SciTegic.value.DoubleValue
3.132

@<SCITEGIC>MOL_PROPERTY
Grad RMS
SciTegic.value.DoubleValue
0.000000

@<SCITEGIC>MOL_PROPERTY
U
SciTegic.value.DoubleValue
5.411

@<SCITEGIC>MOL_PROPERTY
W
SciTegic.value.DoubleValue
-2.279

@<SCITEGIC>MOL_PROPERTY
W(PB)
SciTegic.value.DoubleValue
-4.300

@<SCITEGIC>MOL_PROPERTY
W(SA)
SciTegic.value.DoubleValue
2.021

@<SCITEGIC>MOL_PROPERTY
Valence
SciTegic.value.DoubleValue
11.909

@<SCITEGIC>MOL_PROPERTY
Coulomb
SciTegic.value.DoubleValue
-8.733

@<SCITEGIC>MOL_PROPERTY
VdW
SciTegic.value.DoubleValue
2.236

@<SCITEGIC>MOL_PROPERTY
VdW6
SciTegic.value.DoubleValue
-8.936

@<SCITEGIC>MOL_PROPERTY
VdW12
SciTegic.value.DoubleValue
11.172

@<SCITEGIC>MOL_PROPERTY
Bond
SciTegic.value.DoubleValue
0.223

@<SCITEGIC>MOL_PROPERTY
Angle
SciTegic.value.DoubleValue
2.457

@<SCITEGIC>MOL_PROPERTY
Pdih
SciTegic.value.DoubleValue
9.228

@<SCITEGIC>MOL_PROPERTY
Idih
SciTegic.value.DoubleValue
0.000

@<SCITEGIC>MOL_PROPERTY
Tether
SciTegic.value.DoubleValue
0.000

@<TRIPOS>MOLECULE
guest-5_confgen4.mol2 : confsearch ligand conformer 867
          22          22           1
SMALL
USER_CHARGES
 
@<TRIPOS>ATOM
       1    C1      20.824785   20.181195   24.004368 C.3        1 MOL1        -0.1685
       2    H1      21.171753   20.443702   25.013126 H          1 MOL1         0.0832
       3    H2      21.553653   20.618950   23.308807 H          1 MOL1         0.0832
       4    C2      19.425073   20.807225   23.801966 C.3        1 MOL1        -0.1685
       5    H3      18.664256   20.154668   24.251523 H          1 MOL1         0.0832
       6    H4      19.372356   21.749257   24.364811 H          1 MOL1         0.0832
       7    C3      19.047349   21.108871   22.331505 C.3        1 MOL1        -0.1685
       8    H5      19.473631   22.080013   22.045005 H          1 MOL1         0.0832
       9    H6      17.957225   21.234039   22.276910 H          1 MOL1         0.0832
      10    C4      19.487545   20.060228   21.280450 C.3        1 MOL1        -0.1761
      11    H7      18.886726   20.219736   20.374887 H          1 MOL1         0.0832
      12    H8      20.526552   20.258262   20.986952 H          1 MOL1         0.0832
      13    C5      19.356342   18.588843   21.733670 C.3        1 MOL1         0.1218
      14    H9      18.480296   18.482153   22.389131 H          1 MOL1         0.0789
      15    C6      20.618005   18.080091   22.467395 C.3        1 MOL1        -0.1761
      16    H10     20.568365   16.985012   22.534248 H          1 MOL1         0.0832
      17    H11     21.507993   18.307186   21.866200 H          1 MOL1         0.0832
      18    C7      20.816015   18.637369   23.897062 C.3        1 MOL1        -0.1685
      19    H12     20.038164   18.230189   24.557424 H          1 MOL1         0.0832
      20    H13     21.769215   18.253858   24.285801 H          1 MOL1         0.0832
      21    O1      19.167310   17.781023   20.579588 O.3        1 MOL1        -0.5509
      22    H14     19.963463   17.903756   20.022599 H          1 MOL1         0.3779
@<TRIPOS>BOND
    1     1     2    1
    2     1     3    1
    3     1     4    1
    4     4     5    1
    5     4     6    1
    6     4     7    1
    7     7     8    1
    8     7     9    1
    9     7    10    1
   10    10    11    1
   11    10    12    1
   12    10    13    1
   13    13    14    1
   14    13    15    1
   15    15    16    1
   16    15    17    1
   17     1    18    1
   18    15    18    1
   19    18    19    1
   20    18    20    1
   21    13    21    1
   22    21    22    1
@<TRIPOS>SUBSTRUCTURE
       1 MOL1            1 RESIDUE      1      MOL     
@<SCITEGIC>MOL_PROPERTY
VConf Rank
SciTegic.value.IntegerValue
867

@<SCITEGIC>MOL_PROPERTY
Conf_Id
SciTegic.value.IntegerValue
76

@<SCITEGIC>MOL_PROPERTY
Delta U+W
SciTegic.value.DoubleValue
-3.175

@<SCITEGIC>MOL_PROPERTY
U+W
SciTegic.value.DoubleValue
3.248

@<SCITEGIC>MOL_PROPERTY
Grad RMS
SciTegic.value.DoubleValue
0.000000

@<SCITEGIC>MOL_PROPERTY
U
SciTegic.value.DoubleValue
5.336

@<SCITEGIC>MOL_PROPERTY
W
SciTegic.value.DoubleValue
-2.088

@<SCITEGIC>MOL_PROPERTY
W(PB)
SciTegic.value.DoubleValue
-4.098

@<SCITEGIC>MOL_PROPERTY
W(SA)
SciTegic.value.DoubleValue
2.010

@<SCITEGIC>MOL_PROPERTY
Valence
SciTegic.value.DoubleValue
12.390

@<SCITEGIC>MOL_PROPERTY
Coulomb
SciTegic.value.DoubleValue
-9.270

@<SCITEGIC>MOL_PROPERTY
VdW
SciTegic.value.DoubleValue
2.216

@<SCITEGIC>MOL_PROPERTY
VdW6
SciTegic.value.DoubleValue
-8.967

@<SCITEGIC>MOL_PROPERTY
VdW12
SciTegic.value.DoubleValue
11.183

@<SCITEGIC>MOL_PROPERTY
Bond
SciTegic.value.DoubleValue
0.218

@<SCITEGIC>MOL_PROPERTY
Angle
SciTegic.value.DoubleValue
2.426

@<SCITEGIC>MOL_PROPERTY
Pdih
SciTegic.value.DoubleValue
9.745

@<SCITEGIC>MOL_PROPERTY
Idih
SciTegic.value.DoubleValue
0.000

@<SCITEGIC>MOL_PROPERTY
Tether
SciTegic.value.DoubleValue
0.000

@<TRIPOS>MOLECULE
guest-5_confgen4.mol2 : confsearch ligand conformer 868
          22          22           1
SMALL
USER_CHARGES
 
@<TRIPOS>ATOM
       1    C1      19.303312   21.144452   22.044802 C.3        1 MOL1        -0.1685
       2    H1      19.309924   21.513632   21.010180 H          1 MOL1         0.0832
       3    H2      18.685316   21.854756   22.610810 H          1 MOL1         0.0832
       4    C2      20.751806   21.197300   22.586786 C.3        1 MOL1        -0.1685
       5    H3      21.454008   20.941811   21.781730 H          1 MOL1         0.0832
       6    H4      20.976786   22.239097   22.852918 H          1 MOL1         0.0832
       7    C3      21.024894   20.295519   23.813064 C.3        1 MOL1        -0.1685
       8    H5      20.159464   20.278271   24.489503 H          1 MOL1         0.0832
       9    H6      21.850351   20.739358   24.385705 H          1 MOL1         0.0832
      10    C4      21.444570   18.856743   23.418254 C.3        1 MOL1        -0.1761
      11    H7      22.262309   18.907038   22.687989 H          1 MOL1         0.0832
      12    H8      21.868197   18.360703   24.301372 H          1 MOL1         0.0832
      13    C5      20.327534   17.950282   22.852873 C.3        1 MOL1         0.1218
      14    H9      20.819404   17.048928   22.459526 H          1 MOL1         0.0789
      15    C6      19.504963   18.563938   21.692145 C.3        1 MOL1        -0.1761
      16    H10     20.175595   18.850370   20.871725 H          1 MOL1         0.0832
      17    H11     18.862848   17.771566   21.286409 H          1 MOL1         0.0832
      18    C7      18.604905   19.764291   22.084911 C.3        1 MOL1        -0.1685
      19    H12     17.746293   19.801064   21.400912 H          1 MOL1         0.0832
      20    H13     18.175173   19.602523   23.082209 H          1 MOL1         0.0832
      21    O1      19.461084   17.556235   23.912124 O.3        1 MOL1        -0.5509
      22    H14     18.743483   17.029931   23.504279 H          1 MOL1         0.3779
@<TRIPOS>BOND
    1     1     2    1
    2     1     3    1
    3     1     4    1
    4     4     5    1
    5     4     6    1
    6     4     7    1
    7     7     8    1
    8     7     9    1
    9     7    10    1
   10    10    11    1
   11    10    12    1
   12    10    13    1
   13    13    14    1
   14    13    15    1
   15    15    16    1
   16    15    17    1
   17     1    18    1
   18    15    18    1
   19    18    19    1
   20    18    20    1
   21    13    21    1
   22    21    22    1
@<TRIPOS>SUBSTRUCTURE
       1 MOL1            1 RESIDUE      1      MOL     
@<SCITEGIC>MOL_PROPERTY
VConf Rank
SciTegic.value.IntegerValue
868

@<SCITEGIC>MOL_PROPERTY
Conf_Id
SciTegic.value.IntegerValue
95

@<SCITEGIC>MOL_PROPERTY
Delta U+W
SciTegic.value.DoubleValue
-2.289

@<SCITEGIC>MOL_PROPERTY
U+W
SciTegic.value.DoubleValue
4.134

@<SCITEGIC>MOL_PROPERTY
Grad RMS
SciTegic.value.DoubleValue
0.000000

@<SCITEGIC>MOL_PROPERTY
U
SciTegic.value.DoubleValue
6.373

@<SCITEGIC>MOL_PROPERTY
W
SciTegic.value.DoubleValue
-2.240

@<SCITEGIC>MOL_PROPERTY
W(PB)
SciTegic.value.DoubleValue
-4.254

@<SCITEGIC>MOL_PROPERTY
W(SA)
SciTegic.value.DoubleValue
2.015

@<SCITEGIC>MOL_PROPERTY
Valence
SciTegic.value.DoubleValue
12.093

@<SCITEGIC>MOL_PROPERTY
Coulomb
SciTegic.value.DoubleValue
-8.058

@<SCITEGIC>MOL_PROPERTY
VdW
SciTegic.value.DoubleValue
2.339

@<SCITEGIC>MOL_PROPERTY
VdW6
SciTegic.value.DoubleValue
-9.683

@<SCITEGIC>MOL_PROPERTY
VdW12
SciTegic.value.DoubleValue
12.022

@<SCITEGIC>MOL_PROPERTY
Bond
SciTegic.value.DoubleValue
0.268

@<SCITEGIC>MOL_PROPERTY
Angle
SciTegic.value.DoubleValue
3.005

@<SCITEGIC>MOL_PROPERTY
Pdih
SciTegic.value.DoubleValue
8.820

@<SCITEGIC>MOL_PROPERTY
Idih
SciTegic.value.DoubleValue
0.000

@<SCITEGIC>MOL_PROPERTY
Tether
SciTegic.value.DoubleValue
0.000

@<TRIPOS>MOLECULE
guest-5_confgen4.mol2 : confsearch ligand conformer 869
          22          22           1
SMALL
USER_CHARGES
 
@<TRIPOS>ATOM
       1    C1      18.637367   20.918205   22.610369 C.3        1 MOL1        -0.1685
       2    H1      17.985234   21.268635   23.421957 H          1 MOL1         0.0832
       3    H2      18.343107   21.493756   21.722145 H          1 MOL1         0.0832
       4    C2      18.336250   19.421269   22.359692 C.3        1 MOL1        -0.1685
       5    H3      18.114111   18.927679   23.315465 H          1 MOL1         0.0832
       6    H4      17.409730   19.355156   21.773186 H          1 MOL1         0.0832
       7    C3      19.452142   18.642360   21.625116 C.3        1 MOL1        -0.1685
       8    H5      19.925876   19.266503   20.855154 H          1 MOL1         0.0832
       9    H6      18.986585   17.802064   21.092590 H          1 MOL1         0.0832
      10    C4      20.510919   18.058730   22.594485 C.3        1 MOL1        -0.1761
      11    H7      19.999679   17.513643   23.398481 H          1 MOL1         0.0832
      12    H8      21.098642   17.302421   22.058239 H          1 MOL1         0.0832
      13    C5      21.487892   19.074693   23.229370 C.3        1 MOL1         0.1218
      14    H9      22.045015   18.535113   24.008836 H          1 MOL1         0.0789
      15    C6      20.817782   20.293686   23.911529 C.3        1 MOL1        -0.1761
      16    H10     20.120848   19.952394   24.687602 H          1 MOL1         0.0832
      17    H11     21.607229   20.844683   24.438791 H          1 MOL1         0.0832
      18    C7      20.103726   21.278086   22.948969 C.3        1 MOL1        -0.1685
      19    H12     20.109687   22.279266   23.400435 H          1 MOL1         0.0832
      20    H13     20.680507   21.375902   22.019789 H          1 MOL1         0.0832
      21    O1      22.417465   19.515078   22.244053 O.3        1 MOL1        -0.5509
      22    H14     22.796542   18.710493   21.835238 H          1 MOL1         0.3779
@<TRIPOS>BOND
    1     1     2    1
    2     1     3    1
    3     1     4    1
    4     4     5    1
    5     4     6    1
    6     4     7    1
    7     7     8    1
    8     7     9    1
    9     7    10    1
   10    10    11    1
   11    10    12    1
   12    10    13    1
   13    13    14    1
   14    13    15    1
   15    15    16    1
   16    15    17    1
   17     1    18    1
   18    15    18    1
   19    18    19    1
   20    18    20    1
   21    13    21    1
   22    21    22    1
@<TRIPOS>SUBSTRUCTURE
       1 MOL1            1 RESIDUE      1      MOL     
@<SCITEGIC>MOL_PROPERTY
VConf Rank
SciTegic.value.IntegerValue
869

@<SCITEGIC>MOL_PROPERTY
Conf_Id
SciTegic.value.IntegerValue
41

@<SCITEGIC>MOL_PROPERTY
Delta U+W
SciTegic.value.DoubleValue
-2.114

@<SCITEGIC>MOL_PROPERTY
U+W
SciTegic.value.DoubleValue
4.310

@<SCITEGIC>MOL_PROPERTY
Grad RMS
SciTegic.value.DoubleValue
0.000000

@<SCITEGIC>MOL_PROPERTY
U
SciTegic.value.DoubleValue
6.598

@<SCITEGIC>MOL_PROPERTY
W
SciTegic.value.DoubleValue
-2.289

@<SCITEGIC>MOL_PROPERTY
W(PB)
SciTegic.value.DoubleValue
-4.294

@<SCITEGIC>MOL_PROPERTY
W(SA)
SciTegic.value.DoubleValue
2.005

@<SCITEGIC>MOL_PROPERTY
Valence
SciTegic.value.DoubleValue
12.082

@<SCITEGIC>MOL_PROPERTY
Coulomb
SciTegic.value.DoubleValue
-7.801

@<SCITEGIC>MOL_PROPERTY
VdW
SciTegic.value.DoubleValue
2.317

@<SCITEGIC>MOL_PROPERTY
VdW6
SciTegic.value.DoubleValue
-9.658

@<SCITEGIC>MOL_PROPERTY
VdW12
SciTegic.value.DoubleValue
11.975

@<SCITEGIC>MOL_PROPERTY
Bond
SciTegic.value.DoubleValue
0.267

@<SCITEGIC>MOL_PROPERTY
Angle
SciTegic.value.DoubleValue
3.051

@<SCITEGIC>MOL_PROPERTY
Pdih
SciTegic.value.DoubleValue
8.764

@<SCITEGIC>MOL_PROPERTY
Idih
SciTegic.value.DoubleValue
0.000

@<SCITEGIC>MOL_PROPERTY
Tether
SciTegic.value.DoubleValue
0.000

@<TRIPOS>MOLECULE
guest-5_confgen4.mol2 : confsearch ligand conformer 870
          22          22           1
SMALL
USER_CHARGES
 
@<TRIPOS>ATOM
       1    C1      21.140684   20.607844   23.435376 C.3        1 MOL1        -0.1685
       2    H1      22.014787   21.182248   23.770868 H          1 MOL1         0.0832
       3    H2      20.261908   21.232324   23.647400 H          1 MOL1         0.0832
       4    C2      21.091175   19.298629   24.254455 C.3        1 MOL1        -0.1685
       5    H3      21.944119   18.662285   23.982177 H          1 MOL1         0.0832
       6    H4      21.225608   19.544095   25.316638 H          1 MOL1         0.0832
       7    C3      19.780677   18.495020   24.106028 C.3        1 MOL1        -0.1685
       8    H5      18.956790   19.049839   24.574296 H          1 MOL1         0.0832
       9    H6      19.882434   17.570921   24.690674 H          1 MOL1         0.0832
      10    C4      19.402786   18.112173   22.649384 C.3        1 MOL1        -0.1761
      11    H7      20.253391   17.626168   22.154887 H          1 MOL1         0.0832
      12    H8      18.614656   17.350036   22.700201 H          1 MOL1         0.0832
      13    C5      18.866600   19.264886   21.761808 C.3        1 MOL1         0.1218
      14    H9      18.357395   18.794728   20.908029 H          1 MOL1         0.0789
      15    C6      19.938663   20.208796   21.157775 C.3        1 MOL1        -0.1761
      16    H10     20.170282   19.854104   20.145052 H          1 MOL1         0.0832
      17    H11     19.500650   21.206173   21.020457 H          1 MOL1         0.0832
      18    C7      21.280150   20.357325   21.917546 C.3        1 MOL1        -0.1685
      19    H12     21.907701   19.472979   21.742830 H          1 MOL1         0.0832
      20    H13     21.827121   21.199068   21.471487 H          1 MOL1         0.0832
      21    O1      17.897958   20.031656   22.472242 O.3        1 MOL1        -0.5509
      22    H14     17.568351   20.714336   21.853197 H          1 MOL1         0.3779
@<TRIPOS>BOND
    1     1     2    1
    2     1     3    1
    3     1     4    1
    4     4     5    1
    5     4     6    1
    6     4     7    1
    7     7     8    1
    8     7     9    1
    9     7    10    1
   10    10    11    1
   11    10    12    1
   12    10    13    1
   13    13    14    1
   14    13    15    1
   15    15    16    1
   16    15    17    1
   17     1    18    1
   18    15    18    1
   19    18    19    1
   20    18    20    1
   21    13    21    1
   22    21    22    1
@<TRIPOS>SUBSTRUCTURE
       1 MOL1            1 RESIDUE      1      MOL     
@<SCITEGIC>MOL_PROPERTY
VConf Rank
SciTegic.value.IntegerValue
870

@<SCITEGIC>MOL_PROPERTY
Conf_Id
SciTegic.value.IntegerValue
104

@<SCITEGIC>MOL_PROPERTY
Delta U+W
SciTegic.value.DoubleValue
-1.172

@<SCITEGIC>MOL_PROPERTY
U+W
SciTegic.value.DoubleValue
5.252

@<SCITEGIC>MOL_PROPERTY
Grad RMS
SciTegic.value.DoubleValue
0.000000

@<SCITEGIC>MOL_PROPERTY
U
SciTegic.value.DoubleValue
7.482

@<SCITEGIC>MOL_PROPERTY
W
SciTegic.value.DoubleValue
-2.230

@<SCITEGIC>MOL_PROPERTY
W(PB)
SciTegic.value.DoubleValue
-4.220

@<SCITEGIC>MOL_PROPERTY
W(SA)
SciTegic.value.DoubleValue
1.990

@<SCITEGIC>MOL_PROPERTY
Valence
SciTegic.value.DoubleValue
12.309

@<SCITEGIC>MOL_PROPERTY
Coulomb
SciTegic.value.DoubleValue
-7.084

@<SCITEGIC>MOL_PROPERTY
VdW
SciTegic.value.DoubleValue
2.258

@<SCITEGIC>MOL_PROPERTY
VdW6
SciTegic.value.DoubleValue
-9.770

@<SCITEGIC>MOL_PROPERTY
VdW12
SciTegic.value.DoubleValue
12.028

@<SCITEGIC>MOL_PROPERTY
Bond
SciTegic.value.DoubleValue
0.284

@<SCITEGIC>MOL_PROPERTY
Angle
SciTegic.value.DoubleValue
3.491

@<SCITEGIC>MOL_PROPERTY
Pdih
SciTegic.value.DoubleValue
8.535

@<SCITEGIC>MOL_PROPERTY
Idih
SciTegic.value.DoubleValue
0.000

@<SCITEGIC>MOL_PROPERTY
Tether
SciTegic.value.DoubleValue
0.000

@<TRIPOS>MOLECULE
guest-5_confgen4.mol2 : confsearch ligand conformer 871
          22          22           1
SMALL
USER_CHARGES
 
@<TRIPOS>ATOM
       1    C1      19.159531   18.573049   21.742207 C.3        1 MOL1        -0.1685
       2    H1      19.702324   18.827270   20.821756 H          1 MOL1         0.0832
       3    H2      18.381791   17.855868   21.446046 H          1 MOL1         0.0832
       4    C2      18.455857   19.817610   22.329909 C.3        1 MOL1        -0.1685
       5    H3      17.528802   19.994276   21.767231 H          1 MOL1         0.0832
       6    H4      18.128613   19.600143   23.355071 H          1 MOL1         0.0832
       7    C3      19.280295   21.129612   22.304852 C.3        1 MOL1        -0.1685
       8    H5      18.911805   21.787230   23.104270 H          1 MOL1         0.0832
       9    H6      19.061278   21.659673   21.367837 H          1 MOL1         0.0832
      10    C4      20.823564   21.002556   22.420529 C.3        1 MOL1        -0.1761
      11    H7      21.233782   20.711511   21.444840 H          1 MOL1         0.0832
      12    H8      21.231986   22.002227   22.617632 H          1 MOL1         0.0832
      13    C5      21.372293   20.038502   23.497319 C.3        1 MOL1         0.1218
      14    H9      22.403326   20.349148   23.719472 H          1 MOL1         0.0789
      15    C6      21.442110   18.573111   23.011495 C.3        1 MOL1        -0.1761
      16    H10     22.042449   18.535390   22.093218 H          1 MOL1         0.0832
      17    H11     22.003168   17.992436   23.755320 H          1 MOL1         0.0832
      18    C7      20.089012   17.864176   22.755906 C.3        1 MOL1        -0.1685
      19    H12     20.304055   16.854910   22.379277 H          1 MOL1         0.0832
      20    H13     19.559908   17.717416   23.707215 H          1 MOL1         0.0832
      21    O1      20.598773   20.124212   24.684117 O.3        1 MOL1        -0.5509
      22    H14     19.688987   19.917196   24.391337 H          1 MOL1         0.3779
@<TRIPOS>BOND
    1     1     2    1
    2     1     3    1
    3     1     4    1
    4     4     5    1
    5     4     6    1
    6     4     7    1
    7     7     8    1
    8     7     9    1
    9     7    10    1
   10    10    11    1
   11    10    12    1
   12    10    13    1
   13    13    14    1
   14    13    15    1
   15    15    16    1
   16    15    17    1
   17     1    18    1
   18    15    18    1
   19    18    19    1
   20    18    20    1
   21    13    21    1
   22    21    22    1
@<TRIPOS>SUBSTRUCTURE
       1 MOL1            1 RESIDUE      1      MOL     
@<SCITEGIC>MOL_PROPERTY
VConf Rank
SciTegic.value.IntegerValue
871

@<SCITEGIC>MOL_PROPERTY
Conf_Id
SciTegic.value.IntegerValue
99

@<SCITEGIC>MOL_PROPERTY
Delta U+W
SciTegic.value.DoubleValue
-3.852

@<SCITEGIC>MOL_PROPERTY
U+W
SciTegic.value.DoubleValue
2.572

@<SCITEGIC>MOL_PROPERTY
Grad RMS
SciTegic.value.DoubleValue
0.000000

@<SCITEGIC>MOL_PROPERTY
U
SciTegic.value.DoubleValue
3.922

@<SCITEGIC>MOL_PROPERTY
W
SciTegic.value.DoubleValue
-1.350

@<SCITEGIC>MOL_PROPERTY
W(PB)
SciTegic.value.DoubleValue
-3.345

@<SCITEGIC>MOL_PROPERTY
W(SA)
SciTegic.value.DoubleValue
1.995

@<SCITEGIC>MOL_PROPERTY
Valence
SciTegic.value.DoubleValue
12.571

@<SCITEGIC>MOL_PROPERTY
Coulomb
SciTegic.value.DoubleValue
-10.581

@<SCITEGIC>MOL_PROPERTY
VdW
SciTegic.value.DoubleValue
1.932

@<SCITEGIC>MOL_PROPERTY
VdW6
SciTegic.value.DoubleValue
-10.483

@<SCITEGIC>MOL_PROPERTY
VdW12
SciTegic.value.DoubleValue
12.415

@<SCITEGIC>MOL_PROPERTY
Bond
SciTegic.value.DoubleValue
0.268

@<SCITEGIC>MOL_PROPERTY
Angle
SciTegic.value.DoubleValue
3.728

@<SCITEGIC>MOL_PROPERTY
Pdih
SciTegic.value.DoubleValue
8.575

@<SCITEGIC>MOL_PROPERTY
Idih
SciTegic.value.DoubleValue
0.000

@<SCITEGIC>MOL_PROPERTY
Tether
SciTegic.value.DoubleValue
0.000

@<TRIPOS>MOLECULE
guest-5_confgen4.mol2 : confsearch ligand conformer 872
          22          22           1
SMALL
USER_CHARGES
 
@<TRIPOS>ATOM
       1    C1      21.204013   20.799602   22.458865 C.3        1 MOL1        -0.1685
       2    H1      21.807769   21.639569   22.829306 H          1 MOL1         0.0832
       3    H2      21.501882   20.678317   21.408808 H          1 MOL1         0.0832
       4    C2      19.705674   21.213179   22.547098 C.3        1 MOL1        -0.1685
       5    H3      19.660911   22.232215   22.955575 H          1 MOL1         0.0832
       6    H4      19.275146   21.292792   21.539943 H          1 MOL1         0.0832
       7    C3      18.803117   20.311502   23.427506 C.3        1 MOL1        -0.1685
       8    H5      17.835790   20.814657   23.561071 H          1 MOL1         0.0832
       9    H6      19.221114   20.244739   24.439628 H          1 MOL1         0.0832
      10    C4      18.524731   18.884163   22.879750 C.3        1 MOL1        -0.1761
      11    H7      18.236151   18.243491   23.722959 H          1 MOL1         0.0832
      12    H8      17.638828   18.927899   22.232248 H          1 MOL1         0.0832
      13    C5      19.648031   18.172814   22.085812 C.3        1 MOL1         0.1218
      14    H9      19.351268   17.118765   21.987394 H          1 MOL1         0.0789
      15    C6      21.056096   18.185424   22.730279 C.3        1 MOL1        -0.1761
      16    H10     21.066788   17.461996   23.555675 H          1 MOL1         0.0832
      17    H11     21.762835   17.789786   21.988667 H          1 MOL1         0.0832
      18    C7      21.608361   19.537063   23.262140 C.3        1 MOL1        -0.1685
      19    H12     21.328290   19.662803   24.315381 H          1 MOL1         0.0832
      20    H13     22.704791   19.470561   23.274188 H          1 MOL1         0.0832
      21    O1      19.719453   18.711850   20.775246 O.3        1 MOL1        -0.5509
      22    H14     19.984833   19.642716   20.916648 H          1 MOL1         0.3779
@<TRIPOS>BOND
    1     1     2    1
    2     1     3    1
    3     1     4    1
    4     4     5    1
    5     4     6    1
    6     4     7    1
    7     7     8    1
    8     7     9    1
    9     7    10    1
   10    10    11    1
   11    10    12    1
   12    10    13    1
   13    13    14    1
   14    13    15    1
   15    15    16    1
   16    15    17    1
   17     1    18    1
   18    15    18    1
   19    18    19    1
   20    18    20    1
   21    13    21    1
   22    21    22    1
@<TRIPOS>SUBSTRUCTURE
       1 MOL1            1 RESIDUE      1      MOL     
@<SCITEGIC>MOL_PROPERTY
VConf Rank
SciTegic.value.IntegerValue
872

@<SCITEGIC>MOL_PROPERTY
Conf_Id
SciTegic.value.IntegerValue
98

@<SCITEGIC>MOL_PROPERTY
Delta U+W
SciTegic.value.DoubleValue
0.930

@<SCITEGIC>MOL_PROPERTY
U+W
SciTegic.value.DoubleValue
7.353

@<SCITEGIC>MOL_PROPERTY
Grad RMS
SciTegic.value.DoubleValue
0.000000

@<SCITEGIC>MOL_PROPERTY
U
SciTegic.value.DoubleValue
8.455

@<SCITEGIC>MOL_PROPERTY
W
SciTegic.value.DoubleValue
-1.102

@<SCITEGIC>MOL_PROPERTY
W(PB)
SciTegic.value.DoubleValue
-3.101

@<SCITEGIC>MOL_PROPERTY
W(SA)
SciTegic.value.DoubleValue
2.000

@<SCITEGIC>MOL_PROPERTY
Valence
SciTegic.value.DoubleValue
15.601

@<SCITEGIC>MOL_PROPERTY
Coulomb
SciTegic.value.DoubleValue
-10.573

@<SCITEGIC>MOL_PROPERTY
VdW
SciTegic.value.DoubleValue
3.427

@<SCITEGIC>MOL_PROPERTY
VdW6
SciTegic.value.DoubleValue
-11.360

@<SCITEGIC>MOL_PROPERTY
VdW12
SciTegic.value.DoubleValue
14.787

@<SCITEGIC>MOL_PROPERTY
Bond
SciTegic.value.DoubleValue
0.471

@<SCITEGIC>MOL_PROPERTY
Angle
SciTegic.value.DoubleValue
5.445

@<SCITEGIC>MOL_PROPERTY
Pdih
SciTegic.value.DoubleValue
9.685

@<SCITEGIC>MOL_PROPERTY
Idih
SciTegic.value.DoubleValue
0.000

@<SCITEGIC>MOL_PROPERTY
Tether
SciTegic.value.DoubleValue
0.000

@<TRIPOS>MOLECULE
guest-5_confgen4.mol2 : confsearch ligand conformer 873
          22          22           1
SMALL
USER_CHARGES
 
@<TRIPOS>ATOM
       1    C1      21.050565   19.426605   24.023193 C.3        1 MOL1        -0.1685
       2    H1      21.816094   19.023916   23.347480 H          1 MOL1         0.0832
       3    H2      21.543424   19.497682   25.002351 H          1 MOL1         0.0832
       4    C2      19.872225   18.426079   24.135530 C.3        1 MOL1        -0.1685
       5    H3      20.277841   17.479041   24.516937 H          1 MOL1         0.0832
       6    H4      19.164578   18.775673   24.899495 H          1 MOL1         0.0832
       7    C3      19.098389   18.126331   22.821767 C.3        1 MOL1        -0.1685
       8    H5      18.141430   18.664130   22.817579 H          1 MOL1         0.0832
       9    H6      18.824762   17.062488   22.820589 H          1 MOL1         0.0832
      10    C4      19.874453   18.441387   21.515561 C.3        1 MOL1        -0.1761
      11    H7      20.856127   17.953019   21.553484 H          1 MOL1         0.0832
      12    H8      19.351825   17.958496   20.678863 H          1 MOL1         0.0832
      13    C5      20.066705   19.950776   21.185933 C.3        1 MOL1         0.1218
      14    H9      21.115446   20.102550   20.892377 H          1 MOL1         0.0789
      15    C6      19.737387   20.941095   22.330954 C.3        1 MOL1        -0.1761
      16    H10     19.792966   21.965944   21.941527 H          1 MOL1         0.0832
      17    H11     18.694187   20.810845   22.642977 H          1 MOL1         0.0832
      18    C7      20.661854   20.853843   23.570936 C.3        1 MOL1        -0.1685
      19    H12     21.586235   21.410543   23.364980 H          1 MOL1         0.0832
      20    H13     20.175100   21.376337   24.405646 H          1 MOL1         0.0832
      21    O1      19.230526   20.281183   20.082841 O.3        1 MOL1        -0.5509
      22    H14     19.413135   21.217840   19.860338 H          1 MOL1         0.3779
@<TRIPOS>BOND
    1     1     2    1
    2     1     3    1
    3     1     4    1
    4     4     5    1
    5     4     6    1
    6     4     7    1
    7     7     8    1
    8     7     9    1
    9     7    10    1
   10    10    11    1
   11    10    12    1
   12    10    13    1
   13    13    14    1
   14    13    15    1
   15    15    16    1
   16    15    17    1
   17     1    18    1
   18    15    18    1
   19    18    19    1
   20    18    20    1
   21    13    21    1
   22    21    22    1
@<TRIPOS>SUBSTRUCTURE
       1 MOL1            1 RESIDUE      1      MOL     
@<SCITEGIC>MOL_PROPERTY
VConf Rank
SciTegic.value.IntegerValue
873

@<SCITEGIC>MOL_PROPERTY
Conf_Id
SciTegic.value.IntegerValue
141

@<SCITEGIC>MOL_PROPERTY
Delta U+W
SciTegic.value.DoubleValue
0.000

@<SCITEGIC>MOL_PROPERTY
U+W
SciTegic.value.DoubleValue
6.423

@<SCITEGIC>MOL_PROPERTY
Grad RMS
SciTegic.value.DoubleValue
0.000000

@<SCITEGIC>MOL_PROPERTY
U
SciTegic.value.DoubleValue
8.781

@<SCITEGIC>MOL_PROPERTY
W
SciTegic.value.DoubleValue
-2.358

@<SCITEGIC>MOL_PROPERTY
W(PB)
SciTegic.value.DoubleValue
-4.373

@<SCITEGIC>MOL_PROPERTY
W(SA)
SciTegic.value.DoubleValue
2.015

@<SCITEGIC>MOL_PROPERTY
Valence
SciTegic.value.DoubleValue
13.328

@<SCITEGIC>MOL_PROPERTY
Coulomb
SciTegic.value.DoubleValue
-8.387

@<SCITEGIC>MOL_PROPERTY
VdW
SciTegic.value.DoubleValue
3.840

@<SCITEGIC>MOL_PROPERTY
VdW6
SciTegic.value.DoubleValue
-9.744

@<SCITEGIC>MOL_PROPERTY
VdW12
SciTegic.value.DoubleValue
13.584

@<SCITEGIC>MOL_PROPERTY
Bond
SciTegic.value.DoubleValue
0.436

@<SCITEGIC>MOL_PROPERTY
Angle
SciTegic.value.DoubleValue
3.478

@<SCITEGIC>MOL_PROPERTY
Pdih
SciTegic.value.DoubleValue
9.415

@<SCITEGIC>MOL_PROPERTY
Idih
SciTegic.value.DoubleValue
0.000

@<SCITEGIC>MOL_PROPERTY
Tether
SciTegic.value.DoubleValue
0.000

@<TRIPOS>MOLECULE
guest-5_confgen4.mol2 : confsearch ligand conformer 874
          22          22           1
SMALL
USER_CHARGES
 
@<TRIPOS>ATOM
       1    C1      20.968677   18.861992   23.895513 C.3        1 MOL1        -0.1685
       2    H1      21.480300   18.290321   23.109357 H          1 MOL1         0.0832
       3    H2      21.467946   18.596873   24.837504 H          1 MOL1         0.0832
       4    C2      19.485534   18.435464   24.013906 C.3        1 MOL1        -0.1685
       5    H3      19.446472   17.411385   24.409622 H          1 MOL1         0.0832
       6    H4      18.984539   19.064014   24.762777 H          1 MOL1         0.0832
       7    C3      18.681230   18.473322   22.694061 C.3        1 MOL1        -0.1685
       8    H5      17.637438   18.217392   22.921708 H          1 MOL1         0.0832
       9    H6      19.043963   17.682766   22.022938 H          1 MOL1         0.0832
      10    C4      18.706320   19.831721   21.951564 C.3        1 MOL1        -0.1761
      11    H7      17.929177   19.800809   21.176594 H          1 MOL1         0.0832
      12    H8      18.428904   20.648988   22.629879 H          1 MOL1         0.0832
      13    C5      20.069366   20.121526   21.283921 C.3        1 MOL1         0.1218
      14    H9      20.505907   19.164718   20.963304 H          1 MOL1         0.0789
      15    C6      21.090840   20.839453   22.195221 C.3        1 MOL1        -0.1761
      16    H10     22.084886   20.703350   21.750028 H          1 MOL1         0.0832
      17    H11     20.898148   21.920475   22.175929 H          1 MOL1         0.0832
      18    C7      21.141718   20.382970   23.674775 C.3        1 MOL1        -0.1685
      19    H12     22.107588   20.696662   24.093725 H          1 MOL1         0.0832
      20    H13     20.380766   20.924752   24.252818 H          1 MOL1         0.0832
      21    O1      19.854261   20.934654   20.136852 O.3        1 MOL1        -0.5509
      22    H14     19.265077   20.428901   19.538775 H          1 MOL1         0.3779
@<TRIPOS>BOND
    1     1     2    1
    2     1     3    1
    3     1     4    1
    4     4     5    1
    5     4     6    1
    6     4     7    1
    7     7     8    1
    8     7     9    1
    9     7    10    1
   10    10    11    1
   11    10    12    1
   12    10    13    1
   13    13    14    1
   14    13    15    1
   15    15    16    1
   16    15    17    1
   17     1    18    1
   18    15    18    1
   19    18    19    1
   20    18    20    1
   21    13    21    1
   22    21    22    1
@<TRIPOS>SUBSTRUCTURE
       1 MOL1            1 RESIDUE      1      MOL     
@<SCITEGIC>MOL_PROPERTY
VConf Rank
SciTegic.value.IntegerValue
874

@<SCITEGIC>MOL_PROPERTY
Conf_Id
SciTegic.value.IntegerValue
144

@<SCITEGIC>MOL_PROPERTY
Delta U+W
SciTegic.value.DoubleValue
-3.291

@<SCITEGIC>MOL_PROPERTY
U+W
SciTegic.value.DoubleValue
3.132

@<SCITEGIC>MOL_PROPERTY
Grad RMS
SciTegic.value.DoubleValue
0.000000

@<SCITEGIC>MOL_PROPERTY
U
SciTegic.value.DoubleValue
5.411

@<SCITEGIC>MOL_PROPERTY
W
SciTegic.value.DoubleValue
-2.279

@<SCITEGIC>MOL_PROPERTY
W(PB)
SciTegic.value.DoubleValue
-4.300

@<SCITEGIC>MOL_PROPERTY
W(SA)
SciTegic.value.DoubleValue
2.021

@<SCITEGIC>MOL_PROPERTY
Valence
SciTegic.value.DoubleValue
11.909

@<SCITEGIC>MOL_PROPERTY
Coulomb
SciTegic.value.DoubleValue
-8.733

@<SCITEGIC>MOL_PROPERTY
VdW
SciTegic.value.DoubleValue
2.236

@<SCITEGIC>MOL_PROPERTY
VdW6
SciTegic.value.DoubleValue
-8.936

@<SCITEGIC>MOL_PROPERTY
VdW12
SciTegic.value.DoubleValue
11.172

@<SCITEGIC>MOL_PROPERTY
Bond
SciTegic.value.DoubleValue
0.223

@<SCITEGIC>MOL_PROPERTY
Angle
SciTegic.value.DoubleValue
2.457

@<SCITEGIC>MOL_PROPERTY
Pdih
SciTegic.value.DoubleValue
9.228

@<SCITEGIC>MOL_PROPERTY
Idih
SciTegic.value.DoubleValue
0.000

@<SCITEGIC>MOL_PROPERTY
Tether
SciTegic.value.DoubleValue
0.000

@<TRIPOS>MOLECULE
guest-5_confgen4.mol2 : confsearch ligand conformer 875
          22          22           1
SMALL
USER_CHARGES
 
@<TRIPOS>ATOM
       1    C1      18.636787   20.676098   22.862637 C.3        1 MOL1        -0.1685
       2    H1      17.737125   21.200892   23.212051 H          1 MOL1         0.0832
       3    H2      19.042027   21.281880   22.040754 H          1 MOL1         0.0832
       4    C2      18.209337   19.278005   22.357962 C.3        1 MOL1        -0.1685
       5    H3      18.120796   18.592460   23.211756 H          1 MOL1         0.0832
       6    H4      17.198901   19.347475   21.932296 H          1 MOL1         0.0832
       7    C3      19.136284   18.655445   21.285996 C.3        1 MOL1        -0.1685
       8    H5      18.855451   19.047995   20.299105 H          1 MOL1         0.0832
       9    H6      18.935980   17.575976   21.245474 H          1 MOL1         0.0832
      10    C4      20.656435   18.879101   21.479021 C.3        1 MOL1        -0.1761
      11    H7      21.185531   18.132695   20.871234 H          1 MOL1         0.0832
      12    H8      20.933322   19.854926   21.059506 H          1 MOL1         0.0832
      13    C5      21.146820   18.794228   22.941865 C.3        1 MOL1         0.1218
      14    H9      20.554782   18.044496   23.485796 H          1 MOL1         0.0789
      15    C6      21.062918   20.152504   23.674684 C.3        1 MOL1        -0.1761
      16    H10     21.649436   20.089126   24.601027 H          1 MOL1         0.0832
      17    H11     21.543014   20.928368   23.064250 H          1 MOL1         0.0832
      18    C7      19.632714   20.611625   24.045415 C.3        1 MOL1        -0.1685
      19    H12     19.229649   19.952190   24.826190 H          1 MOL1         0.0832
      20    H13     19.699899   21.608778   24.501442 H          1 MOL1         0.0832
      21    O1      22.508340   18.386297   22.933711 O.3        1 MOL1        -0.5509
      22    H14     23.000525   19.075065   22.441255 H          1 MOL1         0.3779
@<TRIPOS>BOND
    1     1     2    1
    2     1     3    1
    3     1     4    1
    4     4     5    1
    5     4     6    1
    6     4     7    1
    7     7     8    1
    8     7     9    1
    9     7    10    1
   10    10    11    1
   11    10    12    1
   12    10    13    1
   13    13    14    1
   14    13    15    1
   15    15    16    1
   16    15    17    1
   17     1    18    1
   18    15    18    1
   19    18    19    1
   20    18    20    1
   21    13    21    1
   22    21    22    1
@<TRIPOS>SUBSTRUCTURE
       1 MOL1            1 RESIDUE      1      MOL     
@<SCITEGIC>MOL_PROPERTY
VConf Rank
SciTegic.value.IntegerValue
875

@<SCITEGIC>MOL_PROPERTY
Conf_Id
SciTegic.value.IntegerValue
76

@<SCITEGIC>MOL_PROPERTY
Delta U+W
SciTegic.value.DoubleValue
-3.175

@<SCITEGIC>MOL_PROPERTY
U+W
SciTegic.value.DoubleValue
3.248

@<SCITEGIC>MOL_PROPERTY
Grad RMS
SciTegic.value.DoubleValue
0.000000

@<SCITEGIC>MOL_PROPERTY
U
SciTegic.value.DoubleValue
5.336

@<SCITEGIC>MOL_PROPERTY
W
SciTegic.value.DoubleValue
-2.088

@<SCITEGIC>MOL_PROPERTY
W(PB)
SciTegic.value.DoubleValue
-4.098

@<SCITEGIC>MOL_PROPERTY
W(SA)
SciTegic.value.DoubleValue
2.010

@<SCITEGIC>MOL_PROPERTY
Valence
SciTegic.value.DoubleValue
12.390

@<SCITEGIC>MOL_PROPERTY
Coulomb
SciTegic.value.DoubleValue
-9.270

@<SCITEGIC>MOL_PROPERTY
VdW
SciTegic.value.DoubleValue
2.216

@<SCITEGIC>MOL_PROPERTY
VdW6
SciTegic.value.DoubleValue
-8.967

@<SCITEGIC>MOL_PROPERTY
VdW12
SciTegic.value.DoubleValue
11.183

@<SCITEGIC>MOL_PROPERTY
Bond
SciTegic.value.DoubleValue
0.218

@<SCITEGIC>MOL_PROPERTY
Angle
SciTegic.value.DoubleValue
2.426

@<SCITEGIC>MOL_PROPERTY
Pdih
SciTegic.value.DoubleValue
9.745

@<SCITEGIC>MOL_PROPERTY
Idih
SciTegic.value.DoubleValue
0.000

@<SCITEGIC>MOL_PROPERTY
Tether
SciTegic.value.DoubleValue
0.000

@<TRIPOS>MOLECULE
guest-5_confgen4.mol2 : confsearch ligand conformer 876
          22          22           1
SMALL
USER_CHARGES
 
@<TRIPOS>ATOM
       1    C1      18.817397   18.162441   22.618083 C.3        1 MOL1        -0.1685
       2    H1      17.724246   18.246402   22.687033 H          1 MOL1         0.0832
       3    H2      19.022849   17.102112   22.417317 H          1 MOL1         0.0832
       4    C2      19.419354   18.538212   23.993262 C.3        1 MOL1        -0.1685
       5    H3      18.830040   19.349190   24.442153 H          1 MOL1         0.0832
       6    H4      19.294334   17.677983   24.664946 H          1 MOL1         0.0832
       7    C3      20.912114   18.941286   23.965985 C.3        1 MOL1        -0.1685
       8    H5      21.470988   18.332722   23.242007 H          1 MOL1         0.0832
       9    H6      21.344054   18.716672   24.950499 H          1 MOL1         0.0832
      10    C4      21.120661   20.452579   23.692889 C.3        1 MOL1        -0.1761
      11    H7      20.495723   21.033523   24.383155 H          1 MOL1         0.0832
      12    H8      22.157299   20.713883   23.942921 H          1 MOL1         0.0832
      13    C5      20.844072   20.930331   22.249162 C.3        1 MOL1         0.1218
      14    H9      20.859005   22.029609   22.270672 H          1 MOL1         0.0789
      15    C6      19.473671   20.504486   21.665084 C.3        1 MOL1        -0.1761
      16    H10     18.664842   20.861522   22.315622 H          1 MOL1         0.0832
      17    H11     19.341578   21.032507   20.711914 H          1 MOL1         0.0832
      18    C7      19.312240   18.984286   21.404030 C.3        1 MOL1        -0.1685
      19    H12     18.594916   18.840476   20.584769 H          1 MOL1         0.0832
      20    H13     20.257959   18.562072   21.039626 H          1 MOL1         0.0832
      21    O1      21.897371   20.489053   21.398364 O.3        1 MOL1        -0.5509
      22    H14     21.657506   20.766462   20.490734 H          1 MOL1         0.3779
@<TRIPOS>BOND
    1     1     2    1
    2     1     3    1
    3     1     4    1
    4     4     5    1
    5     4     6    1
    6     4     7    1
    7     7     8    1
    8     7     9    1
    9     7    10    1
   10    10    11    1
   11    10    12    1
   12    10    13    1
   13    13    14    1
   14    13    15    1
   15    15    16    1
   16    15    17    1
   17     1    18    1
   18    15    18    1
   19    18    19    1
   20    18    20    1
   21    13    21    1
   22    21    22    1
@<TRIPOS>SUBSTRUCTURE
       1 MOL1            1 RESIDUE      1      MOL     
@<SCITEGIC>MOL_PROPERTY
VConf Rank
SciTegic.value.IntegerValue
876

@<SCITEGIC>MOL_PROPERTY
Conf_Id
SciTegic.value.IntegerValue
95

@<SCITEGIC>MOL_PROPERTY
Delta U+W
SciTegic.value.DoubleValue
-2.289

@<SCITEGIC>MOL_PROPERTY
U+W
SciTegic.value.DoubleValue
4.134

@<SCITEGIC>MOL_PROPERTY
Grad RMS
SciTegic.value.DoubleValue
0.000000

@<SCITEGIC>MOL_PROPERTY
U
SciTegic.value.DoubleValue
6.373

@<SCITEGIC>MOL_PROPERTY
W
SciTegic.value.DoubleValue
-2.240

@<SCITEGIC>MOL_PROPERTY
W(PB)
SciTegic.value.DoubleValue
-4.254

@<SCITEGIC>MOL_PROPERTY
W(SA)
SciTegic.value.DoubleValue
2.015

@<SCITEGIC>MOL_PROPERTY
Valence
SciTegic.value.DoubleValue
12.093

@<SCITEGIC>MOL_PROPERTY
Coulomb
SciTegic.value.DoubleValue
-8.058

@<SCITEGIC>MOL_PROPERTY
VdW
SciTegic.value.DoubleValue
2.339

@<SCITEGIC>MOL_PROPERTY
VdW6
SciTegic.value.DoubleValue
-9.683

@<SCITEGIC>MOL_PROPERTY
VdW12
SciTegic.value.DoubleValue
12.022

@<SCITEGIC>MOL_PROPERTY
Bond
SciTegic.value.DoubleValue
0.268

@<SCITEGIC>MOL_PROPERTY
Angle
SciTegic.value.DoubleValue
3.005

@<SCITEGIC>MOL_PROPERTY
Pdih
SciTegic.value.DoubleValue
8.820

@<SCITEGIC>MOL_PROPERTY
Idih
SciTegic.value.DoubleValue
0.000

@<SCITEGIC>MOL_PROPERTY
Tether
SciTegic.value.DoubleValue
0.000

@<TRIPOS>MOLECULE
guest-5_confgen4.mol2 : confsearch ligand conformer 877
          22          22           1
SMALL
USER_CHARGES
 
@<TRIPOS>ATOM
       1    C1      20.283836   17.924770   21.874400 C.3        1 MOL1        -0.1685
       2    H1      21.050965   17.168786   22.090627 H          1 MOL1         0.0832
       3    H2      19.643438   17.485604   21.097345 H          1 MOL1         0.0832
       4    C2      20.986869   19.175998   21.296037 C.3        1 MOL1        -0.1685
       5    H3      21.956659   19.313371   21.793144 H          1 MOL1         0.0832
       6    H4      21.223331   18.975558   20.242136 H          1 MOL1         0.0832
       7    C3      20.171374   20.486795   21.387124 C.3        1 MOL1        -0.1685
       8    H5      19.103567   20.298651   21.210462 H          1 MOL1         0.0832
       9    H6      20.502236   21.150368   20.576799 H          1 MOL1         0.0832
      10    C4      20.388432   21.233610   22.727446 C.3        1 MOL1        -0.1761
      11    H7      21.465786   21.328970   22.914823 H          1 MOL1         0.0832
      12    H8      20.019684   22.261935   22.619951 H          1 MOL1         0.0832
      13    C5      19.723446   20.605503   23.973645 C.3        1 MOL1         0.1218
      14    H9      20.113842   21.145708   24.848213 H          1 MOL1         0.0789
      15    C6      20.028307   19.102684   24.194847 C.3        1 MOL1        -0.1761
      16    H10     21.112370   18.946793   24.265509 H          1 MOL1         0.0832
      17    H11     19.621595   18.830544   25.177371 H          1 MOL1         0.0832
      18    C7      19.419294   18.143757   23.138910 C.3        1 MOL1        -0.1685
      19    H12     19.252117   17.164371   23.606960 H          1 MOL1         0.0832
      20    H13     18.422629   18.497794   22.844061 H          1 MOL1         0.0832
      21    O1      18.315909   20.815783   23.914351 O.3        1 MOL1        -0.5509
      22    H14     18.180650   21.772463   23.757330 H          1 MOL1         0.3779
@<TRIPOS>BOND
    1     1     2    1
    2     1     3    1
    3     1     4    1
    4     4     5    1
    5     4     6    1
    6     4     7    1
    7     7     8    1
    8     7     9    1
    9     7    10    1
   10    10    11    1
   11    10    12    1
   12    10    13    1
   13    13    14    1
   14    13    15    1
   15    15    16    1
   16    15    17    1
   17     1    18    1
   18    15    18    1
   19    18    19    1
   20    18    20    1
   21    13    21    1
   22    21    22    1
@<TRIPOS>SUBSTRUCTURE
       1 MOL1            1 RESIDUE      1      MOL     
@<SCITEGIC>MOL_PROPERTY
VConf Rank
SciTegic.value.IntegerValue
877

@<SCITEGIC>MOL_PROPERTY
Conf_Id
SciTegic.value.IntegerValue
41

@<SCITEGIC>MOL_PROPERTY
Delta U+W
SciTegic.value.DoubleValue
-2.114

@<SCITEGIC>MOL_PROPERTY
U+W
SciTegic.value.DoubleValue
4.310

@<SCITEGIC>MOL_PROPERTY
Grad RMS
SciTegic.value.DoubleValue
0.000000

@<SCITEGIC>MOL_PROPERTY
U
SciTegic.value.DoubleValue
6.598

@<SCITEGIC>MOL_PROPERTY
W
SciTegic.value.DoubleValue
-2.289

@<SCITEGIC>MOL_PROPERTY
W(PB)
SciTegic.value.DoubleValue
-4.294

@<SCITEGIC>MOL_PROPERTY
W(SA)
SciTegic.value.DoubleValue
2.005

@<SCITEGIC>MOL_PROPERTY
Valence
SciTegic.value.DoubleValue
12.082

@<SCITEGIC>MOL_PROPERTY
Coulomb
SciTegic.value.DoubleValue
-7.801

@<SCITEGIC>MOL_PROPERTY
VdW
SciTegic.value.DoubleValue
2.317

@<SCITEGIC>MOL_PROPERTY
VdW6
SciTegic.value.DoubleValue
-9.658

@<SCITEGIC>MOL_PROPERTY
VdW12
SciTegic.value.DoubleValue
11.975

@<SCITEGIC>MOL_PROPERTY
Bond
SciTegic.value.DoubleValue
0.267

@<SCITEGIC>MOL_PROPERTY
Angle
SciTegic.value.DoubleValue
3.051

@<SCITEGIC>MOL_PROPERTY
Pdih
SciTegic.value.DoubleValue
8.764

@<SCITEGIC>MOL_PROPERTY
Idih
SciTegic.value.DoubleValue
0.000

@<SCITEGIC>MOL_PROPERTY
Tether
SciTegic.value.DoubleValue
0.000

@<TRIPOS>MOLECULE
guest-5_confgen4.mol2 : confsearch ligand conformer 878
          22          22           1
SMALL
USER_CHARGES
 
@<TRIPOS>ATOM
       1    C1      20.642058   19.356833   21.154977 C.3        1 MOL1        -0.1685
       2    H1      21.073554   19.489427   20.153588 H          1 MOL1         0.0832
       3    H2      20.631889   18.274748   21.345151 H          1 MOL1         0.0832
       4    C2      19.203750   19.920761   21.129662 C.3        1 MOL1        -0.1685
       5    H3      19.238686   21.011061   21.000787 H          1 MOL1         0.0832
       6    H4      18.688941   19.528975   20.241949 H          1 MOL1         0.0832
       7    C3      18.354544   19.575776   22.372664 C.3        1 MOL1        -0.1685
       8    H5      18.141976   18.498460   22.382454 H          1 MOL1         0.0832
       9    H6      17.378474   20.066973   22.262493 H          1 MOL1         0.0832
      10    C4      18.968253   20.008353   23.731864 C.3        1 MOL1        -0.1761
      11    H7      19.252697   21.067650   23.696652 H          1 MOL1         0.0832
      12    H8      18.177866   19.938881   24.490182 H          1 MOL1         0.0832
      13    C5      20.162718   19.159367   24.238329 C.3        1 MOL1         0.1218
      14    H9      20.267973   19.372173   25.312067 H          1 MOL1         0.0789
      15    C6      21.539090   19.478285   23.598774 C.3        1 MOL1        -0.1761
      16    H10     22.064659   20.180574   24.258796 H          1 MOL1         0.0832
      17    H11     22.153230   18.568173   23.599137 H          1 MOL1         0.0832
      18    C7      21.549756   20.082400   22.172649 C.3        1 MOL1        -0.1685
      19    H12     21.282455   21.146847   22.216433 H          1 MOL1         0.0832
      20    H13     22.584023   20.053661   21.803673 H          1 MOL1         0.0832
      21    O1      19.880204   17.769391   24.100227 O.3        1 MOL1        -0.5509
      22    H14     20.647092   17.286861   24.470303 H          1 MOL1         0.3779
@<TRIPOS>BOND
    1     1     2    1
    2     1     3    1
    3     1     4    1
    4     4     5    1
    5     4     6    1
    6     4     7    1
    7     7     8    1
    8     7     9    1
    9     7    10    1
   10    10    11    1
   11    10    12    1
   12    10    13    1
   13    13    14    1
   14    13    15    1
   15    15    16    1
   16    15    17    1
   17     1    18    1
   18    15    18    1
   19    18    19    1
   20    18    20    1
   21    13    21    1
   22    21    22    1
@<TRIPOS>SUBSTRUCTURE
       1 MOL1            1 RESIDUE      1      MOL     
@<SCITEGIC>MOL_PROPERTY
VConf Rank
SciTegic.value.IntegerValue
878

@<SCITEGIC>MOL_PROPERTY
Conf_Id
SciTegic.value.IntegerValue
104

@<SCITEGIC>MOL_PROPERTY
Delta U+W
SciTegic.value.DoubleValue
-1.172

@<SCITEGIC>MOL_PROPERTY
U+W
SciTegic.value.DoubleValue
5.252

@<SCITEGIC>MOL_PROPERTY
Grad RMS
SciTegic.value.DoubleValue
0.000000

@<SCITEGIC>MOL_PROPERTY
U
SciTegic.value.DoubleValue
7.482

@<SCITEGIC>MOL_PROPERTY
W
SciTegic.value.DoubleValue
-2.230

@<SCITEGIC>MOL_PROPERTY
W(PB)
SciTegic.value.DoubleValue
-4.220

@<SCITEGIC>MOL_PROPERTY
W(SA)
SciTegic.value.DoubleValue
1.990

@<SCITEGIC>MOL_PROPERTY
Valence
SciTegic.value.DoubleValue
12.309

@<SCITEGIC>MOL_PROPERTY
Coulomb
SciTegic.value.DoubleValue
-7.084

@<SCITEGIC>MOL_PROPERTY
VdW
SciTegic.value.DoubleValue
2.258

@<SCITEGIC>MOL_PROPERTY
VdW6
SciTegic.value.DoubleValue
-9.770

@<SCITEGIC>MOL_PROPERTY
VdW12
SciTegic.value.DoubleValue
12.028

@<SCITEGIC>MOL_PROPERTY
Bond
SciTegic.value.DoubleValue
0.284

@<SCITEGIC>MOL_PROPERTY
Angle
SciTegic.value.DoubleValue
3.491

@<SCITEGIC>MOL_PROPERTY
Pdih
SciTegic.value.DoubleValue
8.535

@<SCITEGIC>MOL_PROPERTY
Idih
SciTegic.value.DoubleValue
0.000

@<SCITEGIC>MOL_PROPERTY
Tether
SciTegic.value.DoubleValue
0.000

@<TRIPOS>MOLECULE
guest-5_confgen4.mol2 : confsearch ligand conformer 879
          22          22           1
SMALL
USER_CHARGES
 
@<TRIPOS>ATOM
       1    C1      20.885971   20.898403   22.110574 C.3        1 MOL1        -0.1685
       2    H1      20.773071   21.450410   23.053455 H          1 MOL1         0.0832
       3    H2      21.429708   21.568958   21.431129 H          1 MOL1         0.0832
       4    C2      19.507892   20.599613   21.477242 C.3        1 MOL1        -0.1685
       5    H3      19.152752   21.505819   20.967425 H          1 MOL1         0.0832
       6    H4      19.627904   19.854117   20.680266 H          1 MOL1         0.0832
       7    C3      18.400075   20.147465   22.462116 C.3        1 MOL1        -0.1685
       8    H5      17.661386   19.553885   21.905953 H          1 MOL1         0.0832
       9    H6      17.857411   21.038157   22.807242 H          1 MOL1         0.0832
      10    C4      18.846883   19.355236   23.720663 C.3        1 MOL1        -0.1761
      11    H7      19.240175   20.058284   24.466317 H          1 MOL1         0.0832
      12    H8      17.951505   18.918284   24.181502 H          1 MOL1         0.0832
      13    C5      19.879962   18.224370   23.511211 C.3        1 MOL1         0.1218
      14    H9      19.788604   17.536027   24.363689 H          1 MOL1         0.0789
      15    C6      21.337902   18.736854   23.505108 C.3        1 MOL1        -0.1761
      16    H10     21.522387   19.283297   24.439146 H          1 MOL1         0.0832
      17    H11     22.006562   17.866653   23.534923 H          1 MOL1         0.0832
      18    C7      21.751375   19.631437   22.310305 C.3        1 MOL1        -0.1685
      19    H12     22.791667   19.946077   22.470007 H          1 MOL1         0.0832
      20    H13     21.761433   19.037560   21.386353 H          1 MOL1         0.0832
      21    O1      19.605911   17.514224   22.313397 O.3        1 MOL1        -0.5509
      22    H14     19.623173   18.202391   21.618837 H          1 MOL1         0.3779
@<TRIPOS>BOND
    1     1     2    1
    2     1     3    1
    3     1     4    1
    4     4     5    1
    5     4     6    1
    6     4     7    1
    7     7     8    1
    8     7     9    1
    9     7    10    1
   10    10    11    1
   11    10    12    1
   12    10    13    1
   13    13    14    1
   14    13    15    1
   15    15    16    1
   16    15    17    1
   17     1    18    1
   18    15    18    1
   19    18    19    1
   20    18    20    1
   21    13    21    1
   22    21    22    1
@<TRIPOS>SUBSTRUCTURE
       1 MOL1            1 RESIDUE      1      MOL     
@<SCITEGIC>MOL_PROPERTY
VConf Rank
SciTegic.value.IntegerValue
879

@<SCITEGIC>MOL_PROPERTY
Conf_Id
SciTegic.value.IntegerValue
99

@<SCITEGIC>MOL_PROPERTY
Delta U+W
SciTegic.value.DoubleValue
-3.852

@<SCITEGIC>MOL_PROPERTY
U+W
SciTegic.value.DoubleValue
2.572

@<SCITEGIC>MOL_PROPERTY
Grad RMS
SciTegic.value.DoubleValue
0.000000

@<SCITEGIC>MOL_PROPERTY
U
SciTegic.value.DoubleValue
3.922

@<SCITEGIC>MOL_PROPERTY
W
SciTegic.value.DoubleValue
-1.350

@<SCITEGIC>MOL_PROPERTY
W(PB)
SciTegic.value.DoubleValue
-3.345

@<SCITEGIC>MOL_PROPERTY
W(SA)
SciTegic.value.DoubleValue
1.995

@<SCITEGIC>MOL_PROPERTY
Valence
SciTegic.value.DoubleValue
12.571

@<SCITEGIC>MOL_PROPERTY
Coulomb
SciTegic.value.DoubleValue
-10.581

@<SCITEGIC>MOL_PROPERTY
VdW
SciTegic.value.DoubleValue
1.932

@<SCITEGIC>MOL_PROPERTY
VdW6
SciTegic.value.DoubleValue
-10.483

@<SCITEGIC>MOL_PROPERTY
VdW12
SciTegic.value.DoubleValue
12.415

@<SCITEGIC>MOL_PROPERTY
Bond
SciTegic.value.DoubleValue
0.268

@<SCITEGIC>MOL_PROPERTY
Angle
SciTegic.value.DoubleValue
3.728

@<SCITEGIC>MOL_PROPERTY
Pdih
SciTegic.value.DoubleValue
8.575

@<SCITEGIC>MOL_PROPERTY
Idih
SciTegic.value.DoubleValue
0.000

@<SCITEGIC>MOL_PROPERTY
Tether
SciTegic.value.DoubleValue
0.000

@<TRIPOS>MOLECULE
guest-5_confgen4.mol2 : confsearch ligand conformer 880
          22          22           1
SMALL
USER_CHARGES
 
@<TRIPOS>ATOM
       1    C1      18.746911   20.106724   23.544171 C.3        1 MOL1        -0.1685
       2    H1      17.816258   20.682985   23.639568 H          1 MOL1         0.0832
       3    H2      18.860398   19.590889   24.507027 H          1 MOL1         0.0832
       4    C2      19.913968   21.115796   23.335363 C.3        1 MOL1        -0.1685
       5    H3      19.488476   22.128821   23.340545 H          1 MOL1         0.0832
       6    H4      20.594853   21.090375   24.196643 H          1 MOL1         0.0832
       7    C3      20.727171   20.951914   22.025938 C.3        1 MOL1        -0.1685
       8    H5      21.378624   21.828869   21.910675 H          1 MOL1         0.0832
       9    H6      20.051609   20.995064   21.162618 H          1 MOL1         0.0832
      10    C4      21.618255   19.682296   21.931768 C.3        1 MOL1        -0.1761
      11    H7      21.812631   19.477645   20.871071 H          1 MOL1         0.0832
      12    H8      22.599480   19.914256   22.366954 H          1 MOL1         0.0832
      13    C5      21.109214   18.379744   22.596896 C.3        1 MOL1         0.1218
      14    H9      21.749617   17.563717   22.232537 H          1 MOL1         0.0789
      15    C6      19.646712   17.977390   22.284897 C.3        1 MOL1        -0.1761
      16    H10     19.608095   17.571010   21.266023 H          1 MOL1         0.0832
      17    H11     19.387454   17.136883   22.942416 H          1 MOL1         0.0832
      18    C7      18.542261   19.062536   22.416985 C.3        1 MOL1        -0.1685
      19    H12     18.410480   19.575656   21.456303 H          1 MOL1         0.0832
      20    H13     17.586254   18.549625   22.589312 H          1 MOL1         0.0832
      21    O1      21.291600   18.459788   24.001734 O.3        1 MOL1        -0.5509
      22    H14     20.705551   19.193918   24.274742 H          1 MOL1         0.3779
@<TRIPOS>BOND
    1     1     2    1
    2     1     3    1
    3     1     4    1
    4     4     5    1
    5     4     6    1
    6     4     7    1
    7     7     8    1
    8     7     9    1
    9     7    10    1
   10    10    11    1
   11    10    12    1
   12    10    13    1
   13    13    14    1
   14    13    15    1
   15    15    16    1
   16    15    17    1
   17     1    18    1
   18    15    18    1
   19    18    19    1
   20    18    20    1
   21    13    21    1
   22    21    22    1
@<TRIPOS>SUBSTRUCTURE
       1 MOL1            1 RESIDUE      1      MOL     
@<SCITEGIC>MOL_PROPERTY
VConf Rank
SciTegic.value.IntegerValue
880

@<SCITEGIC>MOL_PROPERTY
Conf_Id
SciTegic.value.IntegerValue
98

@<SCITEGIC>MOL_PROPERTY
Delta U+W
SciTegic.value.DoubleValue
0.930

@<SCITEGIC>MOL_PROPERTY
U+W
SciTegic.value.DoubleValue
7.353

@<SCITEGIC>MOL_PROPERTY
Grad RMS
SciTegic.value.DoubleValue
0.000000

@<SCITEGIC>MOL_PROPERTY
U
SciTegic.value.DoubleValue
8.455

@<SCITEGIC>MOL_PROPERTY
W
SciTegic.value.DoubleValue
-1.102

@<SCITEGIC>MOL_PROPERTY
W(PB)
SciTegic.value.DoubleValue
-3.101

@<SCITEGIC>MOL_PROPERTY
W(SA)
SciTegic.value.DoubleValue
2.000

@<SCITEGIC>MOL_PROPERTY
Valence
SciTegic.value.DoubleValue
15.601

@<SCITEGIC>MOL_PROPERTY
Coulomb
SciTegic.value.DoubleValue
-10.573

@<SCITEGIC>MOL_PROPERTY
VdW
SciTegic.value.DoubleValue
3.427

@<SCITEGIC>MOL_PROPERTY
VdW6
SciTegic.value.DoubleValue
-11.360

@<SCITEGIC>MOL_PROPERTY
VdW12
SciTegic.value.DoubleValue
14.787

@<SCITEGIC>MOL_PROPERTY
Bond
SciTegic.value.DoubleValue
0.471

@<SCITEGIC>MOL_PROPERTY
Angle
SciTegic.value.DoubleValue
5.445

@<SCITEGIC>MOL_PROPERTY
Pdih
SciTegic.value.DoubleValue
9.685

@<SCITEGIC>MOL_PROPERTY
Idih
SciTegic.value.DoubleValue
0.000

@<SCITEGIC>MOL_PROPERTY
Tether
SciTegic.value.DoubleValue
0.000

@<TRIPOS>MOLECULE
guest-5_confgen4.mol2 : confsearch ligand conformer 881
          22          22           1
SMALL
USER_CHARGES
 
@<TRIPOS>ATOM
       1    C1      21.324142   18.723759   23.420495 C.3        1 MOL1        -0.1685
       2    H1      21.995293   19.330071   22.798624 H          1 MOL1         0.0832
       3    H2      21.988968   18.132795   24.065072 H          1 MOL1         0.0832
       4    C2      20.514491   17.752396   22.524348 C.3        1 MOL1        -0.1685
       5    H3      21.234646   17.120246   21.987098 H          1 MOL1         0.0832
       6    H4      19.931807   17.068423   23.156236 H          1 MOL1         0.0832
       7    C3      19.571856   18.408329   21.477526 C.3        1 MOL1        -0.1685
       8    H5      18.530831   18.352477   21.821275 H          1 MOL1         0.0832
       9    H6      19.600445   17.800848   20.562767 H          1 MOL1         0.0832
      10    C4      19.917339   19.875883   21.110597 C.3        1 MOL1        -0.1761
      11    H7      20.975924   19.936788   20.828965 H          1 MOL1         0.0832
      12    H8      19.367343   20.141806   20.197812 H          1 MOL1         0.0832
      13    C5      19.618039   20.939635   22.207283 C.3        1 MOL1         0.1218
      14    H9      20.492599   21.601599   22.284848 H          1 MOL1         0.0789
      15    C6      19.304457   20.385960   23.619858 C.3        1 MOL1        -0.1761
      16    H10     18.993437   21.216840   24.266358 H          1 MOL1         0.0832
      17    H11     18.433512   19.721398   23.570845 H          1 MOL1         0.0832
      18    C7      20.475057   19.652046   24.320481 C.3        1 MOL1        -0.1685
      19    H12     21.144585   20.398341   24.769469 H          1 MOL1         0.0832
      20    H13     20.068932   19.068923   25.158158 H          1 MOL1         0.0832
      21    O1      18.496044   21.710715   21.792867 O.3        1 MOL1        -0.5509
      22    H14     18.365507   22.406525   22.470353 H          1 MOL1         0.3779
@<TRIPOS>BOND
    1     1     2    1
    2     1     3    1
    3     1     4    1
    4     4     5    1
    5     4     6    1
    6     4     7    1
    7     7     8    1
    8     7     9    1
    9     7    10    1
   10    10    11    1
   11    10    12    1
   12    10    13    1
   13    13    14    1
   14    13    15    1
   15    15    16    1
   16    15    17    1
   17     1    18    1
   18    15    18    1
   19    18    19    1
   20    18    20    1
   21    13    21    1
   22    21    22    1
@<TRIPOS>SUBSTRUCTURE
       1 MOL1            1 RESIDUE      1      MOL     
@<SCITEGIC>MOL_PROPERTY
VConf Rank
SciTegic.value.IntegerValue
881

@<SCITEGIC>MOL_PROPERTY
Conf_Id
SciTegic.value.IntegerValue
141

@<SCITEGIC>MOL_PROPERTY
Delta U+W
SciTegic.value.DoubleValue
0.000

@<SCITEGIC>MOL_PROPERTY
U+W
SciTegic.value.DoubleValue
6.423

@<SCITEGIC>MOL_PROPERTY
Grad RMS
SciTegic.value.DoubleValue
0.000000

@<SCITEGIC>MOL_PROPERTY
U
SciTegic.value.DoubleValue
8.781

@<SCITEGIC>MOL_PROPERTY
W
SciTegic.value.DoubleValue
-2.358

@<SCITEGIC>MOL_PROPERTY
W(PB)
SciTegic.value.DoubleValue
-4.373

@<SCITEGIC>MOL_PROPERTY
W(SA)
SciTegic.value.DoubleValue
2.015

@<SCITEGIC>MOL_PROPERTY
Valence
SciTegic.value.DoubleValue
13.328

@<SCITEGIC>MOL_PROPERTY
Coulomb
SciTegic.value.DoubleValue
-8.387

@<SCITEGIC>MOL_PROPERTY
VdW
SciTegic.value.DoubleValue
3.840

@<SCITEGIC>MOL_PROPERTY
VdW6
SciTegic.value.DoubleValue
-9.744

@<SCITEGIC>MOL_PROPERTY
VdW12
SciTegic.value.DoubleValue
13.584

@<SCITEGIC>MOL_PROPERTY
Bond
SciTegic.value.DoubleValue
0.436

@<SCITEGIC>MOL_PROPERTY
Angle
SciTegic.value.DoubleValue
3.478

@<SCITEGIC>MOL_PROPERTY
Pdih
SciTegic.value.DoubleValue
9.415

@<SCITEGIC>MOL_PROPERTY
Idih
SciTegic.value.DoubleValue
0.000

@<SCITEGIC>MOL_PROPERTY
Tether
SciTegic.value.DoubleValue
0.000

@<TRIPOS>MOLECULE
guest-5_confgen4.mol2 : confsearch ligand conformer 882
          22          22           1
SMALL
USER_CHARGES
 
@<TRIPOS>ATOM
       1    C1      19.645403   21.253042   22.162651 C.3        1 MOL1        -0.1685
       2    H1      19.291604   21.462708   23.181216 H          1 MOL1         0.0832
       3    H2      19.581943   22.204583   21.617264 H          1 MOL1         0.0832
       4    C2      18.715415   20.240964   21.450980 C.3        1 MOL1        -0.1685
       5    H3      17.747591   20.726196   21.264644 H          1 MOL1         0.0832
       6    H4      19.125929   20.003702   20.459989 H          1 MOL1         0.0832
       7    C3      18.455356   18.927760   22.224409 C.3        1 MOL1        -0.1685
       8    H5      17.842879   18.272409   21.590206 H          1 MOL1         0.0832
       9    H6      17.844389   19.141944   23.111992 H          1 MOL1         0.0832
      10    C4      19.728449   18.155577   22.648847 C.3        1 MOL1        -0.1761
      11    H7      19.416691   17.153627   22.971938 H          1 MOL1         0.0832
      12    H8      20.395014   18.005801   21.789629 H          1 MOL1         0.0832
      13    C5      20.484959   18.843518   23.807320 C.3        1 MOL1         0.1218
      14    H9      19.747085   19.342124   24.452128 H          1 MOL1         0.0789
      15    C6      21.526323   19.894383   23.359504 C.3        1 MOL1        -0.1761
      16    H10     21.753959   20.526039   24.227860 H          1 MOL1         0.0832
      17    H11     22.465973   19.387800   23.101546 H          1 MOL1         0.0832
      18    C7      21.125970   20.805976   22.172592 C.3        1 MOL1        -0.1685
      19    H12     21.767623   21.697309   22.197732 H          1 MOL1         0.0832
      20    H13     21.361312   20.301044   21.225825 H          1 MOL1         0.0832
      21    O1      21.160877   17.849414   24.567655 O.3        1 MOL1        -0.5509
      22    H14     20.474316   17.236589   24.904845 H          1 MOL1         0.3779
@<TRIPOS>BOND
    1     1     2    1
    2     1     3    1
    3     1     4    1
    4     4     5    1
    5     4     6    1
    6     4     7    1
    7     7     8    1
    8     7     9    1
    9     7    10    1
   10    10    11    1
   11    10    12    1
   12    10    13    1
   13    13    14    1
   14    13    15    1
   15    15    16    1
   16    15    17    1
   17     1    18    1
   18    15    18    1
   19    18    19    1
   20    18    20    1
   21    13    21    1
   22    21    22    1
@<TRIPOS>SUBSTRUCTURE
       1 MOL1            1 RESIDUE      1      MOL     
@<SCITEGIC>MOL_PROPERTY
VConf Rank
SciTegic.value.IntegerValue
882

@<SCITEGIC>MOL_PROPERTY
Conf_Id
SciTegic.value.IntegerValue
144

@<SCITEGIC>MOL_PROPERTY
Delta U+W
SciTegic.value.DoubleValue
-3.291

@<SCITEGIC>MOL_PROPERTY
U+W
SciTegic.value.DoubleValue
3.132

@<SCITEGIC>MOL_PROPERTY
Grad RMS
SciTegic.value.DoubleValue
0.000000

@<SCITEGIC>MOL_PROPERTY
U
SciTegic.value.DoubleValue
5.411

@<SCITEGIC>MOL_PROPERTY
W
SciTegic.value.DoubleValue
-2.279

@<SCITEGIC>MOL_PROPERTY
W(PB)
SciTegic.value.DoubleValue
-4.300

@<SCITEGIC>MOL_PROPERTY
W(SA)
SciTegic.value.DoubleValue
2.021

@<SCITEGIC>MOL_PROPERTY
Valence
SciTegic.value.DoubleValue
11.909

@<SCITEGIC>MOL_PROPERTY
Coulomb
SciTegic.value.DoubleValue
-8.733

@<SCITEGIC>MOL_PROPERTY
VdW
SciTegic.value.DoubleValue
2.236

@<SCITEGIC>MOL_PROPERTY
VdW6
SciTegic.value.DoubleValue
-8.936

@<SCITEGIC>MOL_PROPERTY
VdW12
SciTegic.value.DoubleValue
11.172

@<SCITEGIC>MOL_PROPERTY
Bond
SciTegic.value.DoubleValue
0.223

@<SCITEGIC>MOL_PROPERTY
Angle
SciTegic.value.DoubleValue
2.457

@<SCITEGIC>MOL_PROPERTY
Pdih
SciTegic.value.DoubleValue
9.228

@<SCITEGIC>MOL_PROPERTY
Idih
SciTegic.value.DoubleValue
0.000

@<SCITEGIC>MOL_PROPERTY
Tether
SciTegic.value.DoubleValue
0.000

@<TRIPOS>MOLECULE
guest-5_confgen4.mol2 : confsearch ligand conformer 883
          22          22           1
SMALL
USER_CHARGES
 
@<TRIPOS>ATOM
       1    C1      18.729158   20.213921   23.702407 C.3        1 MOL1        -0.1685
       2    H1      17.789146   20.586573   24.131825 H          1 MOL1         0.0832
       3    H2      19.484753   20.312248   24.493666 H          1 MOL1         0.0832
       4    C2      19.085047   21.101909   22.487132 C.3        1 MOL1        -0.1685
       5    H3      18.526546   20.756990   21.606291 H          1 MOL1         0.0832
       6    H4      18.729514   22.123849   22.677486 H          1 MOL1         0.0832
       7    C3      20.593595   21.177434   22.148752 C.3        1 MOL1        -0.1685
       8    H5      21.065106   21.938247   22.785743 H          1 MOL1         0.0832
       9    H6      20.695320   21.546205   21.118859 H          1 MOL1         0.0832
      10    C4      21.396797   19.861475   22.294553 C.3        1 MOL1        -0.1761
      11    H7      22.328017   19.971281   21.722503 H          1 MOL1         0.0832
      12    H8      21.703253   19.740366   23.341602 H          1 MOL1         0.0832
      13    C5      20.653045   18.589383   21.829571 C.3        1 MOL1         0.1218
      14    H9      20.007911   18.832289   20.973260 H          1 MOL1         0.0789
      15    C6      19.804348   17.954612   22.954630 C.3        1 MOL1        -0.1761
      16    H10     19.514415   16.940950   22.647125 H          1 MOL1         0.0832
      17    H11     20.420902   17.833750   23.854819 H          1 MOL1         0.0832
      18    C7      18.516338   18.728920   23.322315 C.3        1 MOL1        -0.1685
      19    H12     17.802489   18.664134   22.489759 H          1 MOL1         0.0832
      20    H13     18.037327   18.216233   24.167589 H          1 MOL1         0.0832
      21    O1      21.619649   17.631611   21.419010 O.3        1 MOL1        -0.5509
      22    H14     22.173398   17.443244   22.204529 H          1 MOL1         0.3779
@<TRIPOS>BOND
    1     1     2    1
    2     1     3    1
    3     1     4    1
    4     4     5    1
    5     4     6    1
    6     4     7    1
    7     7     8    1
    8     7     9    1
    9     7    10    1
   10    10    11    1
   11    10    12    1
   12    10    13    1
   13    13    14    1
   14    13    15    1
   15    15    16    1
   16    15    17    1
   17     1    18    1
   18    15    18    1
   19    18    19    1
   20    18    20    1
   21    13    21    1
   22    21    22    1
@<TRIPOS>SUBSTRUCTURE
       1 MOL1            1 RESIDUE      1      MOL     
@<SCITEGIC>MOL_PROPERTY
VConf Rank
SciTegic.value.IntegerValue
883

@<SCITEGIC>MOL_PROPERTY
Conf_Id
SciTegic.value.IntegerValue
76

@<SCITEGIC>MOL_PROPERTY
Delta U+W
SciTegic.value.DoubleValue
-3.175

@<SCITEGIC>MOL_PROPERTY
U+W
SciTegic.value.DoubleValue
3.248

@<SCITEGIC>MOL_PROPERTY
Grad RMS
SciTegic.value.DoubleValue
0.000000

@<SCITEGIC>MOL_PROPERTY
U
SciTegic.value.DoubleValue
5.336

@<SCITEGIC>MOL_PROPERTY
W
SciTegic.value.DoubleValue
-2.088

@<SCITEGIC>MOL_PROPERTY
W(PB)
SciTegic.value.DoubleValue
-4.098

@<SCITEGIC>MOL_PROPERTY
W(SA)
SciTegic.value.DoubleValue
2.010

@<SCITEGIC>MOL_PROPERTY
Valence
SciTegic.value.DoubleValue
12.390

@<SCITEGIC>MOL_PROPERTY
Coulomb
SciTegic.value.DoubleValue
-9.270

@<SCITEGIC>MOL_PROPERTY
VdW
SciTegic.value.DoubleValue
2.216

@<SCITEGIC>MOL_PROPERTY
VdW6
SciTegic.value.DoubleValue
-8.967

@<SCITEGIC>MOL_PROPERTY
VdW12
SciTegic.value.DoubleValue
11.183

@<SCITEGIC>MOL_PROPERTY
Bond
SciTegic.value.DoubleValue
0.218

@<SCITEGIC>MOL_PROPERTY
Angle
SciTegic.value.DoubleValue
2.426

@<SCITEGIC>MOL_PROPERTY
Pdih
SciTegic.value.DoubleValue
9.745

@<SCITEGIC>MOL_PROPERTY
Idih
SciTegic.value.DoubleValue
0.000

@<SCITEGIC>MOL_PROPERTY
Tether
SciTegic.value.DoubleValue
0.000

@<TRIPOS>MOLECULE
guest-5_confgen4.mol2 : confsearch ligand conformer 884
          22          22           1
SMALL
USER_CHARGES
 
@<TRIPOS>ATOM
       1    C1      20.597539   18.364704   24.034791 C.3        1 MOL1        -0.1685
       2    H1      21.607748   18.231660   24.445352 H          1 MOL1         0.0832
       3    H2      19.944793   17.713870   24.632413 H          1 MOL1         0.0832
       4    C2      20.600341   17.863821   22.570624 C.3        1 MOL1        -0.1685
       5    H3      21.560511   18.113912   22.099447 H          1 MOL1         0.0832
       6    H4      20.558625   16.766204   22.587345 H          1 MOL1         0.0832
       7    C3      19.442979   18.397079   21.694444 C.3        1 MOL1        -0.1685
       8    H5      18.512519   18.471015   22.273765 H          1 MOL1         0.0832
       9    H6      19.250063   17.663011   20.900581 H          1 MOL1         0.0832
      10    C4      19.778339   19.749300   21.015392 C.3        1 MOL1        -0.1761
      11    H7      20.746459   19.666444   20.505107 H          1 MOL1         0.0832
      12    H8      19.042139   19.935058   20.222348 H          1 MOL1         0.0832
      13    C5      19.806851   20.988686   21.938542 C.3        1 MOL1         0.1218
      14    H9      20.231892   21.813615   21.348685 H          1 MOL1         0.0789
      15    C6      20.677927   20.842559   23.211476 C.3        1 MOL1        -0.1761
      16    H10     21.708130   20.588716   22.930185 H          1 MOL1         0.0832
      17    H11     20.736058   21.829675   23.687933 H          1 MOL1         0.0832
      18    C7      20.149154   19.828561   24.259056 C.3        1 MOL1        -0.1685
      19    H12     20.493322   20.137590   25.255286 H          1 MOL1         0.0832
      20    H13     19.052974   19.870729   24.304339 H          1 MOL1         0.0832
      21    O1      18.473563   21.339569   22.295257 O.3        1 MOL1        -0.5509
      22    H14     18.540295   22.092030   22.917858 H          1 MOL1         0.3779
@<TRIPOS>BOND
    1     1     2    1
    2     1     3    1
    3     1     4    1
    4     4     5    1
    5     4     6    1
    6     4     7    1
    7     7     8    1
    8     7     9    1
    9     7    10    1
   10    10    11    1
   11    10    12    1
   12    10    13    1
   13    13    14    1
   14    13    15    1
   15    15    16    1
   16    15    17    1
   17     1    18    1
   18    15    18    1
   19    18    19    1
   20    18    20    1
   21    13    21    1
   22    21    22    1
@<TRIPOS>SUBSTRUCTURE
       1 MOL1            1 RESIDUE      1      MOL     
@<SCITEGIC>MOL_PROPERTY
VConf Rank
SciTegic.value.IntegerValue
884

@<SCITEGIC>MOL_PROPERTY
Conf_Id
SciTegic.value.IntegerValue
95

@<SCITEGIC>MOL_PROPERTY
Delta U+W
SciTegic.value.DoubleValue
-2.289

@<SCITEGIC>MOL_PROPERTY
U+W
SciTegic.value.DoubleValue
4.134

@<SCITEGIC>MOL_PROPERTY
Grad RMS
SciTegic.value.DoubleValue
0.000000

@<SCITEGIC>MOL_PROPERTY
U
SciTegic.value.DoubleValue
6.373

@<SCITEGIC>MOL_PROPERTY
W
SciTegic.value.DoubleValue
-2.240

@<SCITEGIC>MOL_PROPERTY
W(PB)
SciTegic.value.DoubleValue
-4.254

@<SCITEGIC>MOL_PROPERTY
W(SA)
SciTegic.value.DoubleValue
2.015

@<SCITEGIC>MOL_PROPERTY
Valence
SciTegic.value.DoubleValue
12.093

@<SCITEGIC>MOL_PROPERTY
Coulomb
SciTegic.value.DoubleValue
-8.058

@<SCITEGIC>MOL_PROPERTY
VdW
SciTegic.value.DoubleValue
2.339

@<SCITEGIC>MOL_PROPERTY
VdW6
SciTegic.value.DoubleValue
-9.683

@<SCITEGIC>MOL_PROPERTY
VdW12
SciTegic.value.DoubleValue
12.022

@<SCITEGIC>MOL_PROPERTY
Bond
SciTegic.value.DoubleValue
0.268

@<SCITEGIC>MOL_PROPERTY
Angle
SciTegic.value.DoubleValue
3.005

@<SCITEGIC>MOL_PROPERTY
Pdih
SciTegic.value.DoubleValue
8.820

@<SCITEGIC>MOL_PROPERTY
Idih
SciTegic.value.DoubleValue
0.000

@<SCITEGIC>MOL_PROPERTY
Tether
SciTegic.value.DoubleValue
0.000

@<TRIPOS>MOLECULE
guest-5_confgen4.mol2 : confsearch ligand conformer 885
          22          22           1
SMALL
USER_CHARGES
 
@<TRIPOS>ATOM
       1    C1      21.741373   18.969555   23.290550 C.3        1 MOL1        -0.1685
       2    H1      22.739897   19.327640   23.005107 H          1 MOL1         0.0832
       3    H2      21.910306   18.167725   24.022206 H          1 MOL1         0.0832
       4    C2      21.065792   18.367990   22.035146 C.3        1 MOL1        -0.1685
       5    H3      21.351966   18.952290   21.150172 H          1 MOL1         0.0832
       6    H4      21.484034   17.365307   21.872362 H          1 MOL1         0.0832
       7    C3      19.524535   18.263553   22.106808 C.3        1 MOL1        -0.1685
       8    H5      19.195550   17.990559   23.118768 H          1 MOL1         0.0832
       9    H6      19.208383   17.441037   21.451110 H          1 MOL1         0.0832
      10    C4      18.815105   19.553197   21.622208 C.3        1 MOL1        -0.1761
      11    H7      19.227867   19.845470   20.647990 H          1 MOL1         0.0832
      12    H8      17.758618   19.322730   21.433252 H          1 MOL1         0.0832
      13    C5      18.885653   20.769206   22.574090 C.3        1 MOL1         0.1218
      14    H9      18.496613   21.632775   22.015523 H          1 MOL1         0.0789
      15    C6      20.309012   21.144675   23.057211 C.3        1 MOL1        -0.1761
      16    H10     20.957460   21.342720   22.194204 H          1 MOL1         0.0832
      17    H11     20.227687   22.097500   23.596043 H          1 MOL1         0.0832
      18    C7      20.978569   20.112677   24.001729 C.3        1 MOL1        -0.1685
      19    H12     21.689929   20.639452   24.651877 H          1 MOL1         0.0832
      20    H13     20.228028   19.685434   24.679793 H          1 MOL1         0.0832
      21    O1      18.032867   20.543577   23.692454 O.3        1 MOL1        -0.5509
      22    H14     17.157092   20.294747   23.332887 H          1 MOL1         0.3779
@<TRIPOS>BOND
    1     1     2    1
    2     1     3    1
    3     1     4    1
    4     4     5    1
    5     4     6    1
    6     4     7    1
    7     7     8    1
    8     7     9    1
    9     7    10    1
   10    10    11    1
   11    10    12    1
   12    10    13    1
   13    13    14    1
   14    13    15    1
   15    15    16    1
   16    15    17    1
   17     1    18    1
   18    15    18    1
   19    18    19    1
   20    18    20    1
   21    13    21    1
   22    21    22    1
@<TRIPOS>SUBSTRUCTURE
       1 MOL1            1 RESIDUE      1      MOL     
@<SCITEGIC>MOL_PROPERTY
VConf Rank
SciTegic.value.IntegerValue
885

@<SCITEGIC>MOL_PROPERTY
Conf_Id
SciTegic.value.IntegerValue
41

@<SCITEGIC>MOL_PROPERTY
Delta U+W
SciTegic.value.DoubleValue
-2.114

@<SCITEGIC>MOL_PROPERTY
U+W
SciTegic.value.DoubleValue
4.310

@<SCITEGIC>MOL_PROPERTY
Grad RMS
SciTegic.value.DoubleValue
0.000000

@<SCITEGIC>MOL_PROPERTY
U
SciTegic.value.DoubleValue
6.598

@<SCITEGIC>MOL_PROPERTY
W
SciTegic.value.DoubleValue
-2.289

@<SCITEGIC>MOL_PROPERTY
W(PB)
SciTegic.value.DoubleValue
-4.294

@<SCITEGIC>MOL_PROPERTY
W(SA)
SciTegic.value.DoubleValue
2.005

@<SCITEGIC>MOL_PROPERTY
Valence
SciTegic.value.DoubleValue
12.082

@<SCITEGIC>MOL_PROPERTY
Coulomb
SciTegic.value.DoubleValue
-7.801

@<SCITEGIC>MOL_PROPERTY
VdW
SciTegic.value.DoubleValue
2.317

@<SCITEGIC>MOL_PROPERTY
VdW6
SciTegic.value.DoubleValue
-9.658

@<SCITEGIC>MOL_PROPERTY
VdW12
SciTegic.value.DoubleValue
11.975

@<SCITEGIC>MOL_PROPERTY
Bond
SciTegic.value.DoubleValue
0.267

@<SCITEGIC>MOL_PROPERTY
Angle
SciTegic.value.DoubleValue
3.051

@<SCITEGIC>MOL_PROPERTY
Pdih
SciTegic.value.DoubleValue
8.764

@<SCITEGIC>MOL_PROPERTY
Idih
SciTegic.value.DoubleValue
0.000

@<SCITEGIC>MOL_PROPERTY
Tether
SciTegic.value.DoubleValue
0.000

@<TRIPOS>MOLECULE
guest-5_confgen4.mol2 : confsearch ligand conformer 886
          22          22           1
SMALL
USER_CHARGES
 
@<TRIPOS>ATOM
       1    C1      20.446482   18.919977   21.210351 C.3        1 MOL1        -0.1685
       2    H1      20.826879   18.342498   20.356907 H          1 MOL1         0.0832
       3    H2      19.560412   19.458711   20.847279 H          1 MOL1         0.0832
       4    C2      21.550344   19.911505   21.641334 C.3        1 MOL1        -0.1685
       5    H3      22.401152   19.355777   22.058315 H          1 MOL1         0.0832
       6    H4      21.932942   20.421080   20.746620 H          1 MOL1         0.0832
       7    C3      21.092257   20.986429   22.651243 C.3        1 MOL1        -0.1685
       8    H5      20.392130   21.674937   22.159643 H          1 MOL1         0.0832
       9    H6      21.966503   21.595949   22.916394 H          1 MOL1         0.0832
      10    C4      20.464914   20.436639   23.960959 C.3        1 MOL1        -0.1761
      11    H7      21.130307   19.690161   24.412934 H          1 MOL1         0.0832
      12    H8      20.417382   21.264878   24.679530 H          1 MOL1         0.0832
      13    C5      19.032041   19.857506   23.836416 C.3        1 MOL1         0.1218
      14    H9      18.619515   19.815008   24.854893 H          1 MOL1         0.0789
      15    C6      18.931014   18.417320   23.270025 C.3        1 MOL1        -0.1761
      16    H10     18.882860   17.722350   24.118411 H          1 MOL1         0.0832
      17    H11     17.970697   18.303964   22.750013 H          1 MOL1         0.0832
      18    C7      20.062817   17.929578   22.331926 C.3        1 MOL1        -0.1685
      19    H12     20.952810   17.673997   22.922693 H          1 MOL1         0.0832
      20    H13     19.734725   16.987691   21.871619 H          1 MOL1         0.0832
      21    O1      18.205622   20.732196   23.072958 O.3        1 MOL1        -0.5509
      22    H14     17.310081   20.337478   23.062344 H          1 MOL1         0.3779
@<TRIPOS>BOND
    1     1     2    1
    2     1     3    1
    3     1     4    1
    4     4     5    1
    5     4     6    1
    6     4     7    1
    7     7     8    1
    8     7     9    1
    9     7    10    1
   10    10    11    1
   11    10    12    1
   12    10    13    1
   13    13    14    1
   14    13    15    1
   15    15    16    1
   16    15    17    1
   17     1    18    1
   18    15    18    1
   19    18    19    1
   20    18    20    1
   21    13    21    1
   22    21    22    1
@<TRIPOS>SUBSTRUCTURE
       1 MOL1            1 RESIDUE      1      MOL     
@<SCITEGIC>MOL_PROPERTY
VConf Rank
SciTegic.value.IntegerValue
886

@<SCITEGIC>MOL_PROPERTY
Conf_Id
SciTegic.value.IntegerValue
104

@<SCITEGIC>MOL_PROPERTY
Delta U+W
SciTegic.value.DoubleValue
-1.172

@<SCITEGIC>MOL_PROPERTY
U+W
SciTegic.value.DoubleValue
5.252

@<SCITEGIC>MOL_PROPERTY
Grad RMS
SciTegic.value.DoubleValue
0.000000

@<SCITEGIC>MOL_PROPERTY
U
SciTegic.value.DoubleValue
7.482

@<SCITEGIC>MOL_PROPERTY
W
SciTegic.value.DoubleValue
-2.230

@<SCITEGIC>MOL_PROPERTY
W(PB)
SciTegic.value.DoubleValue
-4.220

@<SCITEGIC>MOL_PROPERTY
W(SA)
SciTegic.value.DoubleValue
1.990

@<SCITEGIC>MOL_PROPERTY
Valence
SciTegic.value.DoubleValue
12.309

@<SCITEGIC>MOL_PROPERTY
Coulomb
SciTegic.value.DoubleValue
-7.084

@<SCITEGIC>MOL_PROPERTY
VdW
SciTegic.value.DoubleValue
2.258

@<SCITEGIC>MOL_PROPERTY
VdW6
SciTegic.value.DoubleValue
-9.770

@<SCITEGIC>MOL_PROPERTY
VdW12
SciTegic.value.DoubleValue
12.028

@<SCITEGIC>MOL_PROPERTY
Bond
SciTegic.value.DoubleValue
0.284

@<SCITEGIC>MOL_PROPERTY
Angle
SciTegic.value.DoubleValue
3.491

@<SCITEGIC>MOL_PROPERTY
Pdih
SciTegic.value.DoubleValue
8.535

@<SCITEGIC>MOL_PROPERTY
Idih
SciTegic.value.DoubleValue
0.000

@<SCITEGIC>MOL_PROPERTY
Tether
SciTegic.value.DoubleValue
0.000

@<TRIPOS>MOLECULE
guest-5_confgen4.mol2 : confsearch ligand conformer 887
          22          22           1
SMALL
USER_CHARGES
 
@<TRIPOS>ATOM
       1    C1      20.555767   18.647182   23.925715 C.3        1 MOL1        -0.1685
       2    H1      19.802372   17.873571   23.724704 H          1 MOL1         0.0832
       3    H2      21.104475   18.310492   24.815940 H          1 MOL1         0.0832
       4    C2      19.883874   19.996859   24.266911 C.3        1 MOL1        -0.1685
       5    H3      19.553857   19.968956   25.314555 H          1 MOL1         0.0832
       6    H4      20.634455   20.797089   24.226966 H          1 MOL1         0.0832
       7    C3      18.659180   20.376327   23.396391 C.3        1 MOL1        -0.1685
       8    H5      18.555187   21.470166   23.400376 H          1 MOL1         0.0832
       9    H6      17.752877   19.996025   23.887220 H          1 MOL1         0.0832
      10    C4      18.644433   19.868534   21.929035 C.3        1 MOL1        -0.1761
      11    H7      18.341458   18.813533   21.917449 H          1 MOL1         0.0832
      12    H8      17.848412   20.402270   21.393800 H          1 MOL1         0.0832
      13    C5      19.952360   20.018346   21.118564 C.3        1 MOL1         0.1218
      14    H9      19.681026   19.998218   20.053269 H          1 MOL1         0.0789
      15    C6      20.939053   18.851735   21.350349 C.3        1 MOL1        -0.1761
      16    H10     20.427976   17.907957   21.119818 H          1 MOL1         0.0832
      17    H11     21.748623   18.936890   20.613742 H          1 MOL1         0.0832
      18    C7      21.569538   18.749358   22.761306 C.3        1 MOL1        -0.1685
      19    H12     22.207789   17.855498   22.780352 H          1 MOL1         0.0832
      20    H13     22.245904   19.598311   22.929493 H          1 MOL1         0.0832
      21    O1      20.581211   21.256532   21.411157 O.3        1 MOL1        -0.5509
      22    H14     20.713882   21.233670   22.379745 H          1 MOL1         0.3779
@<TRIPOS>BOND
    1     1     2    1
    2     1     3    1
    3     1     4    1
    4     4     5    1
    5     4     6    1
    6     4     7    1
    7     7     8    1
    8     7     9    1
    9     7    10    1
   10    10    11    1
   11    10    12    1
   12    10    13    1
   13    13    14    1
   14    13    15    1
   15    15    16    1
   16    15    17    1
   17     1    18    1
   18    15    18    1
   19    18    19    1
   20    18    20    1
   21    13    21    1
   22    21    22    1
@<TRIPOS>SUBSTRUCTURE
       1 MOL1            1 RESIDUE      1      MOL     
@<SCITEGIC>MOL_PROPERTY
VConf Rank
SciTegic.value.IntegerValue
887

@<SCITEGIC>MOL_PROPERTY
Conf_Id
SciTegic.value.IntegerValue
99

@<SCITEGIC>MOL_PROPERTY
Delta U+W
SciTegic.value.DoubleValue
-3.852

@<SCITEGIC>MOL_PROPERTY
U+W
SciTegic.value.DoubleValue
2.572

@<SCITEGIC>MOL_PROPERTY
Grad RMS
SciTegic.value.DoubleValue
0.000000

@<SCITEGIC>MOL_PROPERTY
U
SciTegic.value.DoubleValue
3.922

@<SCITEGIC>MOL_PROPERTY
W
SciTegic.value.DoubleValue
-1.350

@<SCITEGIC>MOL_PROPERTY
W(PB)
SciTegic.value.DoubleValue
-3.345

@<SCITEGIC>MOL_PROPERTY
W(SA)
SciTegic.value.DoubleValue
1.995

@<SCITEGIC>MOL_PROPERTY
Valence
SciTegic.value.DoubleValue
12.571

@<SCITEGIC>MOL_PROPERTY
Coulomb
SciTegic.value.DoubleValue
-10.581

@<SCITEGIC>MOL_PROPERTY
VdW
SciTegic.value.DoubleValue
1.932

@<SCITEGIC>MOL_PROPERTY
VdW6
SciTegic.value.DoubleValue
-10.483

@<SCITEGIC>MOL_PROPERTY
VdW12
SciTegic.value.DoubleValue
12.415

@<SCITEGIC>MOL_PROPERTY
Bond
SciTegic.value.DoubleValue
0.268

@<SCITEGIC>MOL_PROPERTY
Angle
SciTegic.value.DoubleValue
3.728

@<SCITEGIC>MOL_PROPERTY
Pdih
SciTegic.value.DoubleValue
8.575

@<SCITEGIC>MOL_PROPERTY
Idih
SciTegic.value.DoubleValue
0.000

@<SCITEGIC>MOL_PROPERTY
Tether
SciTegic.value.DoubleValue
0.000

@<TRIPOS>MOLECULE
guest-5_confgen4.mol2 : confsearch ligand conformer 888
          22          22           1
SMALL
USER_CHARGES
 
@<TRIPOS>ATOM
       1    C1      21.637075   19.262747   22.197167 C.3        1 MOL1        -0.1685
       2    H1      22.604576   18.758701   22.328208 H          1 MOL1         0.0832
       3    H2      21.740111   19.835428   21.265783 H          1 MOL1         0.0832
       4    C2      21.435064   20.228729   23.401294 C.3        1 MOL1        -0.1685
       5    H3      22.315201   20.142910   24.053432 H          1 MOL1         0.0832
       6    H4      21.439749   21.270972   23.055231 H          1 MOL1         0.0832
       7    C3      20.176815   19.976231   24.270664 C.3        1 MOL1        -0.1685
       8    H5      20.256057   20.586875   25.180367 H          1 MOL1         0.0832
       9    H6      20.178665   18.940664   24.632836 H          1 MOL1         0.0832
      10    C4      18.811122   20.295459   23.601481 C.3        1 MOL1        -0.1761
      11    H7      18.031299   19.728636   24.126200 H          1 MOL1         0.0832
      12    H8      18.574111   21.352111   23.783982 H          1 MOL1         0.0832
      13    C5      18.663461   20.040202   22.081218 C.3        1 MOL1         0.1218
      14    H9      17.590748   20.105155   21.849178 H          1 MOL1         0.0789
      15    C6      19.152427   18.663783   21.566896 C.3        1 MOL1        -0.1761
      16    H10     18.412834   17.904134   21.850932 H          1 MOL1         0.0832
      17    H11     19.130388   18.693943   20.469353 H          1 MOL1         0.0832
      18    C7      20.554929   18.167791   22.016097 C.3        1 MOL1        -0.1685
      19    H12     20.462496   17.582228   22.939211 H          1 MOL1         0.0832
      20    H13     20.912403   17.447918   21.267283 H          1 MOL1         0.0832
      21    O1      19.311470   21.075744   21.359429 O.3        1 MOL1        -0.5509
      22    H14     20.254869   20.975540   21.597946 H          1 MOL1         0.3779
@<TRIPOS>BOND
    1     1     2    1
    2     1     3    1
    3     1     4    1
    4     4     5    1
    5     4     6    1
    6     4     7    1
    7     7     8    1
    8     7     9    1
    9     7    10    1
   10    10    11    1
   11    10    12    1
   12    10    13    1
   13    13    14    1
   14    13    15    1
   15    15    16    1
   16    15    17    1
   17     1    18    1
   18    15    18    1
   19    18    19    1
   20    18    20    1
   21    13    21    1
   22    21    22    1
@<TRIPOS>SUBSTRUCTURE
       1 MOL1            1 RESIDUE      1      MOL     
@<SCITEGIC>MOL_PROPERTY
VConf Rank
SciTegic.value.IntegerValue
888

@<SCITEGIC>MOL_PROPERTY
Conf_Id
SciTegic.value.IntegerValue
98

@<SCITEGIC>MOL_PROPERTY
Delta U+W
SciTegic.value.DoubleValue
0.930

@<SCITEGIC>MOL_PROPERTY
U+W
SciTegic.value.DoubleValue
7.353

@<SCITEGIC>MOL_PROPERTY
Grad RMS
SciTegic.value.DoubleValue
0.000000

@<SCITEGIC>MOL_PROPERTY
U
SciTegic.value.DoubleValue
8.455

@<SCITEGIC>MOL_PROPERTY
W
SciTegic.value.DoubleValue
-1.102

@<SCITEGIC>MOL_PROPERTY
W(PB)
SciTegic.value.DoubleValue
-3.101

@<SCITEGIC>MOL_PROPERTY
W(SA)
SciTegic.value.DoubleValue
2.000

@<SCITEGIC>MOL_PROPERTY
Valence
SciTegic.value.DoubleValue
15.601

@<SCITEGIC>MOL_PROPERTY
Coulomb
SciTegic.value.DoubleValue
-10.573

@<SCITEGIC>MOL_PROPERTY
VdW
SciTegic.value.DoubleValue
3.427

@<SCITEGIC>MOL_PROPERTY
VdW6
SciTegic.value.DoubleValue
-11.360

@<SCITEGIC>MOL_PROPERTY
VdW12
SciTegic.value.DoubleValue
14.787

@<SCITEGIC>MOL_PROPERTY
Bond
SciTegic.value.DoubleValue
0.471

@<SCITEGIC>MOL_PROPERTY
Angle
SciTegic.value.DoubleValue
5.445

@<SCITEGIC>MOL_PROPERTY
Pdih
SciTegic.value.DoubleValue
9.685

@<SCITEGIC>MOL_PROPERTY
Idih
SciTegic.value.DoubleValue
0.000

@<SCITEGIC>MOL_PROPERTY
Tether
SciTegic.value.DoubleValue
0.000

@<TRIPOS>MOLECULE
guest-5_confgen4.mol2 : confsearch ligand conformer 889
          22          22           1
SMALL
USER_CHARGES
 
@<TRIPOS>ATOM
       1    C1      20.049678   18.387845   23.935553 C.3        1 MOL1        -0.1685
       2    H1      19.205517   17.889166   23.442103 H          1 MOL1         0.0832
       3    H2      20.286622   17.756350   24.802607 H          1 MOL1         0.0832
       4    C2      19.607930   19.782586   24.447134 C.3        1 MOL1        -0.1685
       5    H3      18.775010   19.629507   25.146909 H          1 MOL1         0.0832
       6    H4      20.416827   20.229624   25.040821 H          1 MOL1         0.0832
       7    C3      19.148809   20.797534   23.363744 C.3        1 MOL1        -0.1685
       8    H5      19.939374   21.537048   23.181700 H          1 MOL1         0.0832
       9    H6      18.308634   21.376346   23.770828 H          1 MOL1         0.0832
      10    C4      18.710642   20.166356   22.015658 C.3        1 MOL1        -0.1761
      11    H7      17.966786   19.383625   22.209660 H          1 MOL1         0.0832
      12    H8      18.172551   20.928898   21.436543 H          1 MOL1         0.0832
      13    C5      19.853378   19.579052   21.136397 C.3        1 MOL1         0.1218
      14    H9      19.532445   18.589436   20.780406 H          1 MOL1         0.0789
      15    C6      21.228744   19.419721   21.831551 C.3        1 MOL1        -0.1761
      16    H10     21.972272   19.116220   21.083145 H          1 MOL1         0.0832
      17    H11     21.573079   20.394873   22.196381 H          1 MOL1         0.0832
      18    C7      21.272815   18.390684   22.988680 C.3        1 MOL1        -0.1685
      19    H12     21.378614   17.382950   22.564308 H          1 MOL1         0.0832
      20    H13     22.183571   18.567003   23.576989 H          1 MOL1         0.0832
      21    O1      20.040151   20.431186   20.012048 O.3        1 MOL1        -0.5509
      22    H14     20.721804   20.009794   19.448172 H          1 MOL1         0.3779
@<TRIPOS>BOND
    1     1     2    1
    2     1     3    1
    3     1     4    1
    4     4     5    1
    5     4     6    1
    6     4     7    1
    7     7     8    1
    8     7     9    1
    9     7    10    1
   10    10    11    1
   11    10    12    1
   12    10    13    1
   13    13    14    1
   14    13    15    1
   15    15    16    1
   16    15    17    1
   17     1    18    1
   18    15    18    1
   19    18    19    1
   20    18    20    1
   21    13    21    1
   22    21    22    1
@<TRIPOS>SUBSTRUCTURE
       1 MOL1            1 RESIDUE      1      MOL     
@<SCITEGIC>MOL_PROPERTY
VConf Rank
SciTegic.value.IntegerValue
889

@<SCITEGIC>MOL_PROPERTY
Conf_Id
SciTegic.value.IntegerValue
141

@<SCITEGIC>MOL_PROPERTY
Delta U+W
SciTegic.value.DoubleValue
0.000

@<SCITEGIC>MOL_PROPERTY
U+W
SciTegic.value.DoubleValue
6.423

@<SCITEGIC>MOL_PROPERTY
Grad RMS
SciTegic.value.DoubleValue
0.000000

@<SCITEGIC>MOL_PROPERTY
U
SciTegic.value.DoubleValue
8.781

@<SCITEGIC>MOL_PROPERTY
W
SciTegic.value.DoubleValue
-2.358

@<SCITEGIC>MOL_PROPERTY
W(PB)
SciTegic.value.DoubleValue
-4.373

@<SCITEGIC>MOL_PROPERTY
W(SA)
SciTegic.value.DoubleValue
2.015

@<SCITEGIC>MOL_PROPERTY
Valence
SciTegic.value.DoubleValue
13.328

@<SCITEGIC>MOL_PROPERTY
Coulomb
SciTegic.value.DoubleValue
-8.387

@<SCITEGIC>MOL_PROPERTY
VdW
SciTegic.value.DoubleValue
3.840

@<SCITEGIC>MOL_PROPERTY
VdW6
SciTegic.value.DoubleValue
-9.744

@<SCITEGIC>MOL_PROPERTY
VdW12
SciTegic.value.DoubleValue
13.584

@<SCITEGIC>MOL_PROPERTY
Bond
SciTegic.value.DoubleValue
0.436

@<SCITEGIC>MOL_PROPERTY
Angle
SciTegic.value.DoubleValue
3.478

@<SCITEGIC>MOL_PROPERTY
Pdih
SciTegic.value.DoubleValue
9.415

@<SCITEGIC>MOL_PROPERTY
Idih
SciTegic.value.DoubleValue
0.000

@<SCITEGIC>MOL_PROPERTY
Tether
SciTegic.value.DoubleValue
0.000

@<TRIPOS>MOLECULE
guest-5_confgen4.mol2 : confsearch ligand conformer 890
          22          22           1
SMALL
USER_CHARGES
 
@<TRIPOS>ATOM
       1    C1      19.206313   18.451229   21.605535 C.3        1 MOL1        -0.1685
       2    H1      18.366033   19.150162   21.495846 H          1 MOL1         0.0832
       3    H2      18.976679   17.595902   20.955468 H          1 MOL1         0.0832
       4    C2      19.302448   17.924759   23.057858 C.3        1 MOL1        -0.1685
       5    H3      18.436260   17.278052   23.253671 H          1 MOL1         0.0832
       6    H4      20.185304   17.277929   23.153019 H          1 MOL1         0.0832
       7    C3      19.347238   19.015293   24.152874 C.3        1 MOL1        -0.1685
       8    H5      19.482905   18.520016   25.124019 H          1 MOL1         0.0832
       9    H6      18.372093   19.518423   24.206845 H          1 MOL1         0.0832
      10    C4      20.464180   20.073020   23.977273 C.3        1 MOL1        -0.1761
      11    H7      20.537826   20.637036   24.916393 H          1 MOL1         0.0832
      12    H8      21.438424   19.587521   23.835368 H          1 MOL1         0.0832
      13    C5      20.176789   21.057854   22.821792 C.3        1 MOL1         0.1218
      14    H9      19.088874   21.202248   22.755209 H          1 MOL1         0.0789
      15    C6      20.689800   20.593198   21.439687 C.3        1 MOL1        -0.1761
      16    H10     20.164894   21.182079   20.676443 H          1 MOL1         0.0832
      17    H11     21.752555   20.851819   21.340816 H          1 MOL1         0.0832
      18    C7      20.524593   19.088948   21.108048 C.3        1 MOL1        -0.1685
      19    H12     20.587725   18.972907   20.017464 H          1 MOL1         0.0832
      20    H13     21.377472   18.527553   21.513193 H          1 MOL1         0.0832
      21    O1      20.787633   22.306955   23.121515 O.3        1 MOL1        -0.5509
      22    H14     20.393021   22.619605   23.962436 H          1 MOL1         0.3779
@<TRIPOS>BOND
    1     1     2    1
    2     1     3    1
    3     1     4    1
    4     4     5    1
    5     4     6    1
    6     4     7    1
    7     7     8    1
    8     7     9    1
    9     7    10    1
   10    10    11    1
   11    10    12    1
   12    10    13    1
   13    13    14    1
   14    13    15    1
   15    15    16    1
   16    15    17    1
   17     1    18    1
   18    15    18    1
   19    18    19    1
   20    18    20    1
   21    13    21    1
   22    21    22    1
@<TRIPOS>SUBSTRUCTURE
       1 MOL1            1 RESIDUE      1      MOL     
@<SCITEGIC>MOL_PROPERTY
VConf Rank
SciTegic.value.IntegerValue
890

@<SCITEGIC>MOL_PROPERTY
Conf_Id
SciTegic.value.IntegerValue
144

@<SCITEGIC>MOL_PROPERTY
Delta U+W
SciTegic.value.DoubleValue
-3.291

@<SCITEGIC>MOL_PROPERTY
U+W
SciTegic.value.DoubleValue
3.132

@<SCITEGIC>MOL_PROPERTY
Grad RMS
SciTegic.value.DoubleValue
0.000000

@<SCITEGIC>MOL_PROPERTY
U
SciTegic.value.DoubleValue
5.411

@<SCITEGIC>MOL_PROPERTY
W
SciTegic.value.DoubleValue
-2.279

@<SCITEGIC>MOL_PROPERTY
W(PB)
SciTegic.value.DoubleValue
-4.300

@<SCITEGIC>MOL_PROPERTY
W(SA)
SciTegic.value.DoubleValue
2.021

@<SCITEGIC>MOL_PROPERTY
Valence
SciTegic.value.DoubleValue
11.909

@<SCITEGIC>MOL_PROPERTY
Coulomb
SciTegic.value.DoubleValue
-8.733

@<SCITEGIC>MOL_PROPERTY
VdW
SciTegic.value.DoubleValue
2.236

@<SCITEGIC>MOL_PROPERTY
VdW6
SciTegic.value.DoubleValue
-8.936

@<SCITEGIC>MOL_PROPERTY
VdW12
SciTegic.value.DoubleValue
11.172

@<SCITEGIC>MOL_PROPERTY
Bond
SciTegic.value.DoubleValue
0.223

@<SCITEGIC>MOL_PROPERTY
Angle
SciTegic.value.DoubleValue
2.457

@<SCITEGIC>MOL_PROPERTY
Pdih
SciTegic.value.DoubleValue
9.228

@<SCITEGIC>MOL_PROPERTY
Idih
SciTegic.value.DoubleValue
0.000

@<SCITEGIC>MOL_PROPERTY
Tether
SciTegic.value.DoubleValue
0.000

@<TRIPOS>MOLECULE
guest-5_confgen4.mol2 : confsearch ligand conformer 891
          22          22           1
SMALL
USER_CHARGES
 
@<TRIPOS>ATOM
       1    C1      19.115671   20.859323   21.867624 C.3        1 MOL1        -0.1685
       2    H1      18.435554   21.685673   21.619679 H          1 MOL1         0.0832
       3    H2      19.792875   20.755062   21.009017 H          1 MOL1         0.0832
       4    C2      18.265942   19.581081   22.057707 C.3        1 MOL1        -0.1685
       5    H3      17.850387   19.566192   23.074499 H          1 MOL1         0.0832
       6    H4      17.397090   19.628957   21.387034 H          1 MOL1         0.0832
       7    C3      19.009011   18.251753   21.780834 C.3        1 MOL1        -0.1685
       8    H5      18.989826   18.049750   20.701139 H          1 MOL1         0.0832
       9    H6      18.437986   17.436970   22.246749 H          1 MOL1         0.0832
      10    C4      20.479686   18.174489   22.259672 C.3        1 MOL1        -0.1761
      11    H7      20.762350   17.114122   22.306485 H          1 MOL1         0.0832
      12    H8      21.130760   18.622698   21.498025 H          1 MOL1         0.0832
      13    C5      20.756122   18.842517   23.625292 C.3        1 MOL1         0.1218
      14    H9      19.881843   18.717799   24.279930 H          1 MOL1         0.0789
      15    C6      21.094340   20.344822   23.492384 C.3        1 MOL1        -0.1761
      16    H10     21.521807   20.694380   24.441706 H          1 MOL1         0.0832
      17    H11     21.880963   20.477916   22.738331 H          1 MOL1         0.0832
      18    C7      19.896466   21.259369   23.142503 C.3        1 MOL1        -0.1685
      19    H12     19.206073   21.297484   23.996218 H          1 MOL1         0.0832
      20    H13     20.272438   22.283777   23.015928 H          1 MOL1         0.0832
      21    O1      21.872187   18.195168   24.221571 O.3        1 MOL1        -0.5509
      22    H14     22.626695   18.326323   23.611099 H          1 MOL1         0.3779
@<TRIPOS>BOND
    1     1     2    1
    2     1     3    1
    3     1     4    1
    4     4     5    1
    5     4     6    1
    6     4     7    1
    7     7     8    1
    8     7     9    1
    9     7    10    1
   10    10    11    1
   11    10    12    1
   12    10    13    1
   13    13    14    1
   14    13    15    1
   15    15    16    1
   16    15    17    1
   17     1    18    1
   18    15    18    1
   19    18    19    1
   20    18    20    1
   21    13    21    1
   22    21    22    1
@<TRIPOS>SUBSTRUCTURE
       1 MOL1            1 RESIDUE      1      MOL     
@<SCITEGIC>MOL_PROPERTY
VConf Rank
SciTegic.value.IntegerValue
891

@<SCITEGIC>MOL_PROPERTY
Conf_Id
SciTegic.value.IntegerValue
76

@<SCITEGIC>MOL_PROPERTY
Delta U+W
SciTegic.value.DoubleValue
-3.175

@<SCITEGIC>MOL_PROPERTY
U+W
SciTegic.value.DoubleValue
3.248

@<SCITEGIC>MOL_PROPERTY
Grad RMS
SciTegic.value.DoubleValue
0.000000

@<SCITEGIC>MOL_PROPERTY
U
SciTegic.value.DoubleValue
5.336

@<SCITEGIC>MOL_PROPERTY
W
SciTegic.value.DoubleValue
-2.088

@<SCITEGIC>MOL_PROPERTY
W(PB)
SciTegic.value.DoubleValue
-4.098

@<SCITEGIC>MOL_PROPERTY
W(SA)
SciTegic.value.DoubleValue
2.010

@<SCITEGIC>MOL_PROPERTY
Valence
SciTegic.value.DoubleValue
12.390

@<SCITEGIC>MOL_PROPERTY
Coulomb
SciTegic.value.DoubleValue
-9.270

@<SCITEGIC>MOL_PROPERTY
VdW
SciTegic.value.DoubleValue
2.216

@<SCITEGIC>MOL_PROPERTY
VdW6
SciTegic.value.DoubleValue
-8.967

@<SCITEGIC>MOL_PROPERTY
VdW12
SciTegic.value.DoubleValue
11.183

@<SCITEGIC>MOL_PROPERTY
Bond
SciTegic.value.DoubleValue
0.218

@<SCITEGIC>MOL_PROPERTY
Angle
SciTegic.value.DoubleValue
2.426

@<SCITEGIC>MOL_PROPERTY
Pdih
SciTegic.value.DoubleValue
9.745

@<SCITEGIC>MOL_PROPERTY
Idih
SciTegic.value.DoubleValue
0.000

@<SCITEGIC>MOL_PROPERTY
Tether
SciTegic.value.DoubleValue
0.000

@<TRIPOS>MOLECULE
guest-5_confgen4.mol2 : confsearch ligand conformer 892
          22          22           1
SMALL
USER_CHARGES
 
@<TRIPOS>ATOM
       1    C1      20.870045   20.786918   21.519833 C.3        1 MOL1        -0.1685
       2    H1      20.795258   21.882351   21.554698 H          1 MOL1         0.0832
       3    H2      21.577370   20.562054   20.709930 H          1 MOL1         0.0832
       4    C2      19.480550   20.218666   21.144247 C.3        1 MOL1        -0.1685
       5    H3      18.696235   20.828719   21.612398 H          1 MOL1         0.0832
       6    H4      19.343610   20.344879   20.061611 H          1 MOL1         0.0832
       7    C3      19.261608   18.731664   21.508160 C.3        1 MOL1        -0.1685
       8    H5      20.180338   18.149362   21.354227 H          1 MOL1         0.0832
       9    H6      18.518082   18.316693   20.814430 H          1 MOL1         0.0832
      10    C4      18.722124   18.539528   22.948341 C.3        1 MOL1        -0.1761
      11    H7      17.848106   19.186784   23.095531 H          1 MOL1         0.0832
      12    H8      18.348126   17.512108   23.048079 H          1 MOL1         0.0832
      13    C5      19.728033   18.793495   24.094091 C.3        1 MOL1         0.1218
      14    H9      19.149616   18.794950   25.029254 H          1 MOL1         0.0789
      15    C6      20.481523   20.145369   24.022141 C.3        1 MOL1        -0.1761
      16    H10     19.760247   20.972400   23.996472 H          1 MOL1         0.0832
      17    H11     21.036164   20.265626   24.961661 H          1 MOL1         0.0832
      18    C7      21.483950   20.279373   22.846386 C.3        1 MOL1        -0.1685
      19    H12     22.279942   20.977666   23.138289 H          1 MOL1         0.0832
      20    H13     21.988797   19.320389   22.670545 H          1 MOL1         0.0832
      21    O1      20.658393   17.716762   24.149742 O.3        1 MOL1        -0.5509
      22    H14     21.304103   17.942052   24.850161 H          1 MOL1         0.3779
@<TRIPOS>BOND
    1     1     2    1
    2     1     3    1
    3     1     4    1
    4     4     5    1
    5     4     6    1
    6     4     7    1
    7     7     8    1
    8     7     9    1
    9     7    10    1
   10    10    11    1
   11    10    12    1
   12    10    13    1
   13    13    14    1
   14    13    15    1
   15    15    16    1
   16    15    17    1
   17     1    18    1
   18    15    18    1
   19    18    19    1
   20    18    20    1
   21    13    21    1
   22    21    22    1
@<TRIPOS>SUBSTRUCTURE
       1 MOL1            1 RESIDUE      1      MOL     
@<SCITEGIC>MOL_PROPERTY
VConf Rank
SciTegic.value.IntegerValue
892

@<SCITEGIC>MOL_PROPERTY
Conf_Id
SciTegic.value.IntegerValue
95

@<SCITEGIC>MOL_PROPERTY
Delta U+W
SciTegic.value.DoubleValue
-2.289

@<SCITEGIC>MOL_PROPERTY
U+W
SciTegic.value.DoubleValue
4.134

@<SCITEGIC>MOL_PROPERTY
Grad RMS
SciTegic.value.DoubleValue
0.000000

@<SCITEGIC>MOL_PROPERTY
U
SciTegic.value.DoubleValue
6.373

@<SCITEGIC>MOL_PROPERTY
W
SciTegic.value.DoubleValue
-2.240

@<SCITEGIC>MOL_PROPERTY
W(PB)
SciTegic.value.DoubleValue
-4.254

@<SCITEGIC>MOL_PROPERTY
W(SA)
SciTegic.value.DoubleValue
2.015

@<SCITEGIC>MOL_PROPERTY
Valence
SciTegic.value.DoubleValue
12.093

@<SCITEGIC>MOL_PROPERTY
Coulomb
SciTegic.value.DoubleValue
-8.058

@<SCITEGIC>MOL_PROPERTY
VdW
SciTegic.value.DoubleValue
2.339

@<SCITEGIC>MOL_PROPERTY
VdW6
SciTegic.value.DoubleValue
-9.683

@<SCITEGIC>MOL_PROPERTY
VdW12
SciTegic.value.DoubleValue
12.022

@<SCITEGIC>MOL_PROPERTY
Bond
SciTegic.value.DoubleValue
0.268

@<SCITEGIC>MOL_PROPERTY
Angle
SciTegic.value.DoubleValue
3.005

@<SCITEGIC>MOL_PROPERTY
Pdih
SciTegic.value.DoubleValue
8.820

@<SCITEGIC>MOL_PROPERTY
Idih
SciTegic.value.DoubleValue
0.000

@<SCITEGIC>MOL_PROPERTY
Tether
SciTegic.value.DoubleValue
0.000

@<TRIPOS>MOLECULE
guest-5_confgen4.mol2 : confsearch ligand conformer 893
          22          22           1
SMALL
USER_CHARGES
 
@<TRIPOS>ATOM
       1    C1      20.697004   17.843655   22.911414 C.3        1 MOL1        -0.1685
       2    H1      20.114217   16.914842   22.977903 H          1 MOL1         0.0832
       3    H2      21.751293   17.537036   22.946740 H          1 MOL1         0.0832
       4    C2      20.382978   18.702446   24.159691 C.3        1 MOL1        -0.1685
       5    H3      19.325700   18.580389   24.431249 H          1 MOL1         0.0832
       6    H4      20.952128   18.292767   25.005286 H          1 MOL1         0.0832
       7    C3      20.707715   20.207779   24.018147 C.3        1 MOL1        -0.1685
       8    H5      21.628208   20.358590   23.437830 H          1 MOL1         0.0832
       9    H6      20.910341   20.607889   25.020784 H          1 MOL1         0.0832
      10    C4      19.532854   21.018309   23.414780 C.3        1 MOL1        -0.1761
      11    H7      18.612677   20.779129   23.963382 H          1 MOL1         0.0832
      12    H8      19.711971   22.085629   23.598426 H          1 MOL1         0.0832
      13    C5      19.273158   20.820966   21.903705 C.3        1 MOL1         0.1218
      14    H9      18.318386   21.317534   21.678027 H          1 MOL1         0.0789
      15    C6      19.137550   19.346861   21.446584 C.3        1 MOL1        -0.1761
      16    H10     18.330116   18.854675   22.003622 H          1 MOL1         0.0832
      17    H11     18.813063   19.361085   20.398092 H          1 MOL1         0.0832
      18    C7      20.437592   18.505958   21.537211 C.3        1 MOL1        -0.1685
      19    H12     20.395950   17.709965   20.781646 H          1 MOL1         0.0832
      20    H13     21.301815   19.123806   21.259715 H          1 MOL1         0.0832
      21    O1      20.298465   21.471827   21.159380 O.3        1 MOL1        -0.5509
      22    H14     20.353154   22.388678   21.497876 H          1 MOL1         0.3779
@<TRIPOS>BOND
    1     1     2    1
    2     1     3    1
    3     1     4    1
    4     4     5    1
    5     4     6    1
    6     4     7    1
    7     7     8    1
    8     7     9    1
    9     7    10    1
   10    10    11    1
   11    10    12    1
   12    10    13    1
   13    13    14    1
   14    13    15    1
   15    15    16    1
   16    15    17    1
   17     1    18    1
   18    15    18    1
   19    18    19    1
   20    18    20    1
   21    13    21    1
   22    21    22    1
@<TRIPOS>SUBSTRUCTURE
       1 MOL1            1 RESIDUE      1      MOL     
@<SCITEGIC>MOL_PROPERTY
VConf Rank
SciTegic.value.IntegerValue
893

@<SCITEGIC>MOL_PROPERTY
Conf_Id
SciTegic.value.IntegerValue
41

@<SCITEGIC>MOL_PROPERTY
Delta U+W
SciTegic.value.DoubleValue
-2.114

@<SCITEGIC>MOL_PROPERTY
U+W
SciTegic.value.DoubleValue
4.310

@<SCITEGIC>MOL_PROPERTY
Grad RMS
SciTegic.value.DoubleValue
0.000000

@<SCITEGIC>MOL_PROPERTY
U
SciTegic.value.DoubleValue
6.598

@<SCITEGIC>MOL_PROPERTY
W
SciTegic.value.DoubleValue
-2.289

@<SCITEGIC>MOL_PROPERTY
W(PB)
SciTegic.value.DoubleValue
-4.294

@<SCITEGIC>MOL_PROPERTY
W(SA)
SciTegic.value.DoubleValue
2.005

@<SCITEGIC>MOL_PROPERTY
Valence
SciTegic.value.DoubleValue
12.082

@<SCITEGIC>MOL_PROPERTY
Coulomb
SciTegic.value.DoubleValue
-7.801

@<SCITEGIC>MOL_PROPERTY
VdW
SciTegic.value.DoubleValue
2.317

@<SCITEGIC>MOL_PROPERTY
VdW6
SciTegic.value.DoubleValue
-9.658

@<SCITEGIC>MOL_PROPERTY
VdW12
SciTegic.value.DoubleValue
11.975

@<SCITEGIC>MOL_PROPERTY
Bond
SciTegic.value.DoubleValue
0.267

@<SCITEGIC>MOL_PROPERTY
Angle
SciTegic.value.DoubleValue
3.051

@<SCITEGIC>MOL_PROPERTY
Pdih
SciTegic.value.DoubleValue
8.764

@<SCITEGIC>MOL_PROPERTY
Idih
SciTegic.value.DoubleValue
0.000

@<SCITEGIC>MOL_PROPERTY
Tether
SciTegic.value.DoubleValue
0.000

@<TRIPOS>MOLECULE
guest-5_confgen4.mol2 : confsearch ligand conformer 894
          22          22           1
SMALL
USER_CHARGES
 
@<TRIPOS>ATOM
       1    C1      21.525999   19.889789   21.954818 C.3        1 MOL1        -0.1685
       2    H1      22.351458   20.342812   21.389188 H          1 MOL1         0.0832
       3    H2      21.976689   19.114667   22.589831 H          1 MOL1         0.0832
       4    C2      20.544426   19.262200   20.939913 C.3        1 MOL1        -0.1685
       5    H3      20.059025   20.057460   20.358080 H          1 MOL1         0.0832
       6    H4      21.119682   18.668336   20.216750 H          1 MOL1         0.0832
       7    C3      19.466407   18.350296   21.565635 C.3        1 MOL1        -0.1685
       8    H5      19.941116   17.443983   21.964558 H          1 MOL1         0.0832
       9    H6      18.805491   18.005309   20.759224 H          1 MOL1         0.0832
      10    C4      18.592161   19.018174   22.661454 C.3        1 MOL1        -0.1761
      11    H7      18.179367   19.964378   22.289222 H          1 MOL1         0.0832
      12    H8      17.726806   18.366744   22.838608 H          1 MOL1         0.0832
      13    C5      19.279486   19.247080   24.032300 C.3        1 MOL1         0.1218
      14    H9      18.475758   19.414211   24.763986 H          1 MOL1         0.0789
      15    C6      20.210365   20.484054   24.124499 C.3        1 MOL1        -0.1761
      16    H10     19.628734   21.315084   24.544210 H          1 MOL1         0.0832
      17    H11     20.999455   20.283834   24.861194 H          1 MOL1         0.0832
      18    C7      20.869764   20.990209   22.817633 C.3        1 MOL1        -0.1685
      19    H12     20.133829   21.543078   22.218341 H          1 MOL1         0.0832
      20    H13     21.637905   21.725859   23.092327 H          1 MOL1         0.0832
      21    O1      19.991746   18.079838   24.433737 O.3        1 MOL1        -0.5509
      22    H14     20.368218   18.268233   25.317302 H          1 MOL1         0.3779
@<TRIPOS>BOND
    1     1     2    1
    2     1     3    1
    3     1     4    1
    4     4     5    1
    5     4     6    1
    6     4     7    1
    7     7     8    1
    8     7     9    1
    9     7    10    1
   10    10    11    1
   11    10    12    1
   12    10    13    1
   13    13    14    1
   14    13    15    1
   15    15    16    1
   16    15    17    1
   17     1    18    1
   18    15    18    1
   19    18    19    1
   20    18    20    1
   21    13    21    1
   22    21    22    1
@<TRIPOS>SUBSTRUCTURE
       1 MOL1            1 RESIDUE      1      MOL     
@<SCITEGIC>MOL_PROPERTY
VConf Rank
SciTegic.value.IntegerValue
894

@<SCITEGIC>MOL_PROPERTY
Conf_Id
SciTegic.value.IntegerValue
104

@<SCITEGIC>MOL_PROPERTY
Delta U+W
SciTegic.value.DoubleValue
-1.172

@<SCITEGIC>MOL_PROPERTY
U+W
SciTegic.value.DoubleValue
5.252

@<SCITEGIC>MOL_PROPERTY
Grad RMS
SciTegic.value.DoubleValue
0.000000

@<SCITEGIC>MOL_PROPERTY
U
SciTegic.value.DoubleValue
7.482

@<SCITEGIC>MOL_PROPERTY
W
SciTegic.value.DoubleValue
-2.230

@<SCITEGIC>MOL_PROPERTY
W(PB)
SciTegic.value.DoubleValue
-4.220

@<SCITEGIC>MOL_PROPERTY
W(SA)
SciTegic.value.DoubleValue
1.990

@<SCITEGIC>MOL_PROPERTY
Valence
SciTegic.value.DoubleValue
12.309

@<SCITEGIC>MOL_PROPERTY
Coulomb
SciTegic.value.DoubleValue
-7.084

@<SCITEGIC>MOL_PROPERTY
VdW
SciTegic.value.DoubleValue
2.258

@<SCITEGIC>MOL_PROPERTY
VdW6
SciTegic.value.DoubleValue
-9.770

@<SCITEGIC>MOL_PROPERTY
VdW12
SciTegic.value.DoubleValue
12.028

@<SCITEGIC>MOL_PROPERTY
Bond
SciTegic.value.DoubleValue
0.284

@<SCITEGIC>MOL_PROPERTY
Angle
SciTegic.value.DoubleValue
3.491

@<SCITEGIC>MOL_PROPERTY
Pdih
SciTegic.value.DoubleValue
8.535

@<SCITEGIC>MOL_PROPERTY
Idih
SciTegic.value.DoubleValue
0.000

@<SCITEGIC>MOL_PROPERTY
Tether
SciTegic.value.DoubleValue
0.000

@<TRIPOS>MOLECULE
guest-5_confgen4.mol2 : confsearch ligand conformer 895
          22          22           1
SMALL
USER_CHARGES
 
@<TRIPOS>ATOM
       1    C1      19.727099   18.627694   23.961653 C.3        1 MOL1        -0.1685
       2    H1      19.811297   17.701821   23.376714 H          1 MOL1         0.0832
       3    H2      19.457448   18.317878   24.980595 H          1 MOL1         0.0832
       4    C2      18.586485   19.520285   23.421500 C.3        1 MOL1        -0.1685
       5    H3      17.629797   19.131671   23.796968 H          1 MOL1         0.0832
       6    H4      18.674557   20.525025   23.855179 H          1 MOL1         0.0832
       7    C3      18.483256   19.617389   21.878260 C.3        1 MOL1        -0.1685
       8    H5      17.989377   20.564784   21.621665 H          1 MOL1         0.0832
       9    H6      17.803421   18.829863   21.525336 H          1 MOL1         0.0832
      10    C4      19.802039   19.494515   21.067757 C.3        1 MOL1        -0.1761
      11    H7      20.081077   18.435372   20.994890 H          1 MOL1         0.0832
      12    H8      19.596474   19.809396   20.036450 H          1 MOL1         0.0832
      13    C5      21.021213   20.294940   21.580508 C.3        1 MOL1         0.1218
      14    H9      21.707609   20.424868   20.731474 H          1 MOL1         0.0789
      15    C6      21.808701   19.549397   22.681552 C.3        1 MOL1        -0.1761
      16    H10     22.105804   18.565376   22.296204 H          1 MOL1         0.0832
      17    H11     22.746132   20.092506   22.859034 H          1 MOL1         0.0832
      18    C7      21.087929   19.359909   24.039261 C.3        1 MOL1        -0.1685
      19    H12     21.753268   18.782472   24.695463 H          1 MOL1         0.0832
      20    H13     20.959829   20.333216   24.531949 H          1 MOL1         0.0832
      21    O1      20.617975   21.573006   22.047537 O.3        1 MOL1        -0.5509
      22    H14     19.952922   21.376140   22.736910 H          1 MOL1         0.3779
@<TRIPOS>BOND
    1     1     2    1
    2     1     3    1
    3     1     4    1
    4     4     5    1
    5     4     6    1
    6     4     7    1
    7     7     8    1
    8     7     9    1
    9     7    10    1
   10    10    11    1
   11    10    12    1
   12    10    13    1
   13    13    14    1
   14    13    15    1
   15    15    16    1
   16    15    17    1
   17     1    18    1
   18    15    18    1
   19    18    19    1
   20    18    20    1
   21    13    21    1
   22    21    22    1
@<TRIPOS>SUBSTRUCTURE
       1 MOL1            1 RESIDUE      1      MOL     
@<SCITEGIC>MOL_PROPERTY
VConf Rank
SciTegic.value.IntegerValue
895

@<SCITEGIC>MOL_PROPERTY
Conf_Id
SciTegic.value.IntegerValue
99

@<SCITEGIC>MOL_PROPERTY
Delta U+W
SciTegic.value.DoubleValue
-3.852

@<SCITEGIC>MOL_PROPERTY
U+W
SciTegic.value.DoubleValue
2.572

@<SCITEGIC>MOL_PROPERTY
Grad RMS
SciTegic.value.DoubleValue
0.000000

@<SCITEGIC>MOL_PROPERTY
U
SciTegic.value.DoubleValue
3.922

@<SCITEGIC>MOL_PROPERTY
W
SciTegic.value.DoubleValue
-1.350

@<SCITEGIC>MOL_PROPERTY
W(PB)
SciTegic.value.DoubleValue
-3.345

@<SCITEGIC>MOL_PROPERTY
W(SA)
SciTegic.value.DoubleValue
1.995

@<SCITEGIC>MOL_PROPERTY
Valence
SciTegic.value.DoubleValue
12.571

@<SCITEGIC>MOL_PROPERTY
Coulomb
SciTegic.value.DoubleValue
-10.581

@<SCITEGIC>MOL_PROPERTY
VdW
SciTegic.value.DoubleValue
1.932

@<SCITEGIC>MOL_PROPERTY
VdW6
SciTegic.value.DoubleValue
-10.483

@<SCITEGIC>MOL_PROPERTY
VdW12
SciTegic.value.DoubleValue
12.415

@<SCITEGIC>MOL_PROPERTY
Bond
SciTegic.value.DoubleValue
0.268

@<SCITEGIC>MOL_PROPERTY
Angle
SciTegic.value.DoubleValue
3.728

@<SCITEGIC>MOL_PROPERTY
Pdih
SciTegic.value.DoubleValue
8.575

@<SCITEGIC>MOL_PROPERTY
Idih
SciTegic.value.DoubleValue
0.000

@<SCITEGIC>MOL_PROPERTY
Tether
SciTegic.value.DoubleValue
0.000

@<TRIPOS>MOLECULE
guest-5_confgen4.mol2 : confsearch ligand conformer 896
          22          22           1
SMALL
USER_CHARGES
 
@<TRIPOS>ATOM
       1    C1      21.509771   19.301374   23.474374 C.3        1 MOL1        -0.1685
       2    H1      22.300785   18.626568   23.829656 H          1 MOL1         0.0832
       3    H2      21.827680   20.302948   23.793498 H          1 MOL1         0.0832
       4    C2      20.186122   18.904772   24.191668 C.3        1 MOL1        -0.1685
       5    H3      20.404255   18.058412   24.857537 H          1 MOL1         0.0832
       6    H4      19.860511   19.713611   24.859359 H          1 MOL1         0.0832
       7    C3      19.011977   18.489200   23.268937 C.3        1 MOL1        -0.1685
       8    H5      18.219061   18.053680   23.892100 H          1 MOL1         0.0832
       9    H6      19.328893   17.668872   22.613044 H          1 MOL1         0.0832
      10    C4      18.378336   19.625436   22.419056 C.3        1 MOL1        -0.1761
      11    H7      17.867894   19.168406   21.561551 H          1 MOL1         0.0832
      12    H8      17.583733   20.099186   23.010803 H          1 MOL1         0.0832
      13    C5      19.304008   20.751062   21.895362 C.3        1 MOL1         0.1218
      14    H9      18.729285   21.314659   21.146479 H          1 MOL1         0.0789
      15    C6      20.614591   20.295840   21.207402 C.3        1 MOL1        -0.1761
      16    H10     20.368499   19.918264   20.206595 H          1 MOL1         0.0832
      17    H11     21.227033   21.191326   21.037060 H          1 MOL1         0.0832
      18    C7      21.490137   19.231943   21.925972 C.3        1 MOL1        -0.1685
      19    H12     21.190320   18.226916   21.604107 H          1 MOL1         0.0832
      20    H13     22.520362   19.342684   21.561148 H          1 MOL1         0.0832
      21    O1      19.607686   21.647958   22.952055 O.3        1 MOL1        -0.5509
      22    H14     20.114930   21.102786   23.586423 H          1 MOL1         0.3779
@<TRIPOS>BOND
    1     1     2    1
    2     1     3    1
    3     1     4    1
    4     4     5    1
    5     4     6    1
    6     4     7    1
    7     7     8    1
    8     7     9    1
    9     7    10    1
   10    10    11    1
   11    10    12    1
   12    10    13    1
   13    13    14    1
   14    13    15    1
   15    15    16    1
   16    15    17    1
   17     1    18    1
   18    15    18    1
   19    18    19    1
   20    18    20    1
   21    13    21    1
   22    21    22    1
@<TRIPOS>SUBSTRUCTURE
       1 MOL1            1 RESIDUE      1      MOL     
@<SCITEGIC>MOL_PROPERTY
VConf Rank
SciTegic.value.IntegerValue
896

@<SCITEGIC>MOL_PROPERTY
Conf_Id
SciTegic.value.IntegerValue
98

@<SCITEGIC>MOL_PROPERTY
Delta U+W
SciTegic.value.DoubleValue
0.930

@<SCITEGIC>MOL_PROPERTY
U+W
SciTegic.value.DoubleValue
7.353

@<SCITEGIC>MOL_PROPERTY
Grad RMS
SciTegic.value.DoubleValue
0.000000

@<SCITEGIC>MOL_PROPERTY
U
SciTegic.value.DoubleValue
8.455

@<SCITEGIC>MOL_PROPERTY
W
SciTegic.value.DoubleValue
-1.102

@<SCITEGIC>MOL_PROPERTY
W(PB)
SciTegic.value.DoubleValue
-3.101

@<SCITEGIC>MOL_PROPERTY
W(SA)
SciTegic.value.DoubleValue
2.000

@<SCITEGIC>MOL_PROPERTY
Valence
SciTegic.value.DoubleValue
15.601

@<SCITEGIC>MOL_PROPERTY
Coulomb
SciTegic.value.DoubleValue
-10.573

@<SCITEGIC>MOL_PROPERTY
VdW
SciTegic.value.DoubleValue
3.427

@<SCITEGIC>MOL_PROPERTY
VdW6
SciTegic.value.DoubleValue
-11.360

@<SCITEGIC>MOL_PROPERTY
VdW12
SciTegic.value.DoubleValue
14.787

@<SCITEGIC>MOL_PROPERTY
Bond
SciTegic.value.DoubleValue
0.471

@<SCITEGIC>MOL_PROPERTY
Angle
SciTegic.value.DoubleValue
5.445

@<SCITEGIC>MOL_PROPERTY
Pdih
SciTegic.value.DoubleValue
9.685

@<SCITEGIC>MOL_PROPERTY
Idih
SciTegic.value.DoubleValue
0.000

@<SCITEGIC>MOL_PROPERTY
Tether
SciTegic.value.DoubleValue
0.000

@<TRIPOS>MOLECULE
guest-5_confgen4.mol2 : confsearch ligand conformer 897
          22          22           1
SMALL
USER_CHARGES
 
@<TRIPOS>ATOM
       1    C1      21.365142   18.599991   22.144120 C.3        1 MOL1        -0.1685
       2    H1      21.222142   17.994113   23.048135 H          1 MOL1         0.0832
       3    H2      22.194743   18.119945   21.607436 H          1 MOL1         0.0832
       4    C2      21.797457   20.035224   22.538290 C.3        1 MOL1        -0.1685
       5    H3      22.731064   19.953609   23.111520 H          1 MOL1         0.0832
       6    H4      22.052578   20.603870   21.633758 H          1 MOL1         0.0832
       7    C3      20.780523   20.850686   23.384170 C.3        1 MOL1        -0.1685
       8    H5      20.270634   21.588536   22.751236 H          1 MOL1         0.0832
       9    H6      21.343326   21.446476   24.115553 H          1 MOL1         0.0832
      10    C4      19.725357   20.001547   24.141333 C.3        1 MOL1        -0.1761
      11    H7      20.238053   19.224970   24.722451 H          1 MOL1         0.0832
      12    H8      19.241594   20.641437   24.891601 H          1 MOL1         0.0832
      13    C5      18.626246   19.338771   23.260110 C.3        1 MOL1         0.1218
      14    H9      18.518894   18.292879   23.582061 H          1 MOL1         0.0789
      15    C6      18.885193   19.349893   21.732668 C.3        1 MOL1        -0.1761
      16    H10     17.993302   18.969301   21.218142 H          1 MOL1         0.0832
      17    H11     18.995687   20.383914   21.384559 H          1 MOL1         0.0832
      18    C7      20.099701   18.513083   21.258825 C.3        1 MOL1        -0.1685
      19    H12     19.800542   17.458090   21.193179 H          1 MOL1         0.0832
      20    H13     20.354621   18.818248   20.234833 H          1 MOL1         0.0832
      21    O1      17.395922   20.016374   23.488880 O.3        1 MOL1        -0.5509
      22    H14     16.712535   19.544845   22.968475 H          1 MOL1         0.3779
@<TRIPOS>BOND
    1     1     2    1
    2     1     3    1
    3     1     4    1
    4     4     5    1
    5     4     6    1
    6     4     7    1
    7     7     8    1
    8     7     9    1
    9     7    10    1
   10    10    11    1
   11    10    12    1
   12    10    13    1
   13    13    14    1
   14    13    15    1
   15    15    16    1
   16    15    17    1
   17     1    18    1
   18    15    18    1
   19    18    19    1
   20    18    20    1
   21    13    21    1
   22    21    22    1
@<TRIPOS>SUBSTRUCTURE
       1 MOL1            1 RESIDUE      1      MOL     
@<SCITEGIC>MOL_PROPERTY
VConf Rank
SciTegic.value.IntegerValue
897

@<SCITEGIC>MOL_PROPERTY
Conf_Id
SciTegic.value.IntegerValue
141

@<SCITEGIC>MOL_PROPERTY
Delta U+W
SciTegic.value.DoubleValue
0.000

@<SCITEGIC>MOL_PROPERTY
U+W
SciTegic.value.DoubleValue
6.423

@<SCITEGIC>MOL_PROPERTY
Grad RMS
SciTegic.value.DoubleValue
0.000000

@<SCITEGIC>MOL_PROPERTY
U
SciTegic.value.DoubleValue
8.781

@<SCITEGIC>MOL_PROPERTY
W
SciTegic.value.DoubleValue
-2.358

@<SCITEGIC>MOL_PROPERTY
W(PB)
SciTegic.value.DoubleValue
-4.373

@<SCITEGIC>MOL_PROPERTY
W(SA)
SciTegic.value.DoubleValue
2.015

@<SCITEGIC>MOL_PROPERTY
Valence
SciTegic.value.DoubleValue
13.328

@<SCITEGIC>MOL_PROPERTY
Coulomb
SciTegic.value.DoubleValue
-8.387

@<SCITEGIC>MOL_PROPERTY
VdW
SciTegic.value.DoubleValue
3.840

@<SCITEGIC>MOL_PROPERTY
VdW6
SciTegic.value.DoubleValue
-9.744

@<SCITEGIC>MOL_PROPERTY
VdW12
SciTegic.value.DoubleValue
13.584

@<SCITEGIC>MOL_PROPERTY
Bond
SciTegic.value.DoubleValue
0.436

@<SCITEGIC>MOL_PROPERTY
Angle
SciTegic.value.DoubleValue
3.478

@<SCITEGIC>MOL_PROPERTY
Pdih
SciTegic.value.DoubleValue
9.415

@<SCITEGIC>MOL_PROPERTY
Idih
SciTegic.value.DoubleValue
0.000

@<SCITEGIC>MOL_PROPERTY
Tether
SciTegic.value.DoubleValue
0.000

@<TRIPOS>MOLECULE
guest-5_confgen4.mol2 : confsearch ligand conformer 898
          22          22           1
SMALL
USER_CHARGES
 
@<TRIPOS>ATOM
       1    C1      20.114682   18.247234   23.746382 C.3        1 MOL1        -0.1685
       2    H1      21.204579   18.384060   23.749851 H          1 MOL1         0.0832
       3    H2      19.909801   17.423741   24.444083 H          1 MOL1         0.0832
       4    C2      19.615832   17.812354   22.347209 C.3        1 MOL1        -0.1685
       5    H3      19.977630   16.794475   22.147511 H          1 MOL1         0.0832
       6    H4      18.519499   17.742789   22.356889 H          1 MOL1         0.0832
       7    C3      20.060194   18.720163   21.177270 C.3        1 MOL1        -0.1685
       8    H5      19.589959   18.347517   20.257031 H          1 MOL1         0.0832
       9    H6      21.142973   18.614485   21.024364 H          1 MOL1         0.0832
      10    C4      19.706409   20.218541   21.341214 C.3        1 MOL1        -0.1761
      11    H7      19.858961   20.703996   20.368308 H          1 MOL1         0.0832
      12    H8      18.642070   20.341231   21.580228 H          1 MOL1         0.0832
      13    C5      20.583596   20.926406   22.398143 C.3        1 MOL1         0.1218
      14    H9      21.580012   20.461821   22.385479 H          1 MOL1         0.0789
      15    C6      20.033566   20.855058   23.840943 C.3        1 MOL1        -0.1761
      16    H10     20.861080   21.089696   24.522862 H          1 MOL1         0.0832
      17    H11     19.289761   21.649931   23.985996 H          1 MOL1         0.0832
      18    C7      19.397003   19.511089   24.275201 C.3        1 MOL1        -0.1685
      19    H12     19.383978   19.480826   25.373262 H          1 MOL1         0.0832
      20    H13     18.342580   19.487723   23.968025 H          1 MOL1         0.0832
      21    O1      20.712495   22.297685   22.042900 O.3        1 MOL1        -0.5509
      22    H14     21.132400   22.321687   21.157619 H          1 MOL1         0.3779
@<TRIPOS>BOND
    1     1     2    1
    2     1     3    1
    3     1     4    1
    4     4     5    1
    5     4     6    1
    6     4     7    1
    7     7     8    1
    8     7     9    1
    9     7    10    1
   10    10    11    1
   11    10    12    1
   12    10    13    1
   13    13    14    1
   14    13    15    1
   15    15    16    1
   16    15    17    1
   17     1    18    1
   18    15    18    1
   19    18    19    1
   20    18    20    1
   21    13    21    1
   22    21    22    1
@<TRIPOS>SUBSTRUCTURE
       1 MOL1            1 RESIDUE      1      MOL     
@<SCITEGIC>MOL_PROPERTY
VConf Rank
SciTegic.value.IntegerValue
898

@<SCITEGIC>MOL_PROPERTY
Conf_Id
SciTegic.value.IntegerValue
144

@<SCITEGIC>MOL_PROPERTY
Delta U+W
SciTegic.value.DoubleValue
-3.291

@<SCITEGIC>MOL_PROPERTY
U+W
SciTegic.value.DoubleValue
3.132

@<SCITEGIC>MOL_PROPERTY
Grad RMS
SciTegic.value.DoubleValue
0.000000

@<SCITEGIC>MOL_PROPERTY
U
SciTegic.value.DoubleValue
5.411

@<SCITEGIC>MOL_PROPERTY
W
SciTegic.value.DoubleValue
-2.279

@<SCITEGIC>MOL_PROPERTY
W(PB)
SciTegic.value.DoubleValue
-4.300

@<SCITEGIC>MOL_PROPERTY
W(SA)
SciTegic.value.DoubleValue
2.021

@<SCITEGIC>MOL_PROPERTY
Valence
SciTegic.value.DoubleValue
11.909

@<SCITEGIC>MOL_PROPERTY
Coulomb
SciTegic.value.DoubleValue
-8.733

@<SCITEGIC>MOL_PROPERTY
VdW
SciTegic.value.DoubleValue
2.236

@<SCITEGIC>MOL_PROPERTY
VdW6
SciTegic.value.DoubleValue
-8.936

@<SCITEGIC>MOL_PROPERTY
VdW12
SciTegic.value.DoubleValue
11.172

@<SCITEGIC>MOL_PROPERTY
Bond
SciTegic.value.DoubleValue
0.223

@<SCITEGIC>MOL_PROPERTY
Angle
SciTegic.value.DoubleValue
2.457

@<SCITEGIC>MOL_PROPERTY
Pdih
SciTegic.value.DoubleValue
9.228

@<SCITEGIC>MOL_PROPERTY
Idih
SciTegic.value.DoubleValue
0.000

@<SCITEGIC>MOL_PROPERTY
Tether
SciTegic.value.DoubleValue
0.000

@<TRIPOS>MOLECULE
guest-5_confgen4.mol2 : confsearch ligand conformer 899
          22          22           1
SMALL
USER_CHARGES
 
@<TRIPOS>ATOM
       1    C1      20.939980   19.032325   21.337399 C.3        1 MOL1        -0.1685
       2    H1      21.415627   18.454389   20.533260 H          1 MOL1         0.0832
       3    H2      21.430683   20.015123   21.336471 H          1 MOL1         0.0832
       4    C2      21.191606   18.291979   22.671808 C.3        1 MOL1        -0.1685
       5    H3      20.451871   17.488365   22.789163 H          1 MOL1         0.0832
       6    H4      22.166184   17.787486   22.620009 H          1 MOL1         0.0832
       7    C3      21.186548   19.190620   23.932101 C.3        1 MOL1        -0.1685
       8    H5      22.179062   19.646648   24.049873 H          1 MOL1         0.0832
       9    H6      21.048236   18.546436   24.811257 H          1 MOL1         0.0832
      10    C4      20.129363   20.321742   23.964732 C.3        1 MOL1        -0.1761
      11    H7      20.016167   20.645609   25.008172 H          1 MOL1         0.0832
      12    H8      20.517710   21.193812   23.422907 H          1 MOL1         0.0832
      13    C5      18.746846   19.938038   23.391135 C.3        1 MOL1         0.1218
      14    H9      18.535287   18.882766   23.614996 H          1 MOL1         0.0789
      15    C6      18.651656   20.173917   21.866577 C.3        1 MOL1        -0.1761
      16    H10     17.595432   20.129105   21.569065 H          1 MOL1         0.0832
      17    H11     18.990038   21.191420   21.631480 H          1 MOL1         0.0832
      18    C7      19.436454   19.164495   20.995443 C.3        1 MOL1        -0.1685
      19    H12     18.958914   18.177390   21.062563 H          1 MOL1         0.0832
      20    H13     19.341886   19.471691   19.944979 H          1 MOL1         0.0832
      21    O1      17.761980   20.747144   24.020100 O.3        1 MOL1        -0.5509
      22    H14     17.984544   21.675127   23.799935 H          1 MOL1         0.3779
@<TRIPOS>BOND
    1     1     2    1
    2     1     3    1
    3     1     4    1
    4     4     5    1
    5     4     6    1
    6     4     7    1
    7     7     8    1
    8     7     9    1
    9     7    10    1
   10    10    11    1
   11    10    12    1
   12    10    13    1
   13    13    14    1
   14    13    15    1
   15    15    16    1
   16    15    17    1
   17     1    18    1
   18    15    18    1
   19    18    19    1
   20    18    20    1
   21    13    21    1
   22    21    22    1
@<TRIPOS>SUBSTRUCTURE
       1 MOL1            1 RESIDUE      1      MOL     
@<SCITEGIC>MOL_PROPERTY
VConf Rank
SciTegic.value.IntegerValue
899

@<SCITEGIC>MOL_PROPERTY
Conf_Id
SciTegic.value.IntegerValue
76

@<SCITEGIC>MOL_PROPERTY
Delta U+W
SciTegic.value.DoubleValue
-3.175

@<SCITEGIC>MOL_PROPERTY
U+W
SciTegic.value.DoubleValue
3.248

@<SCITEGIC>MOL_PROPERTY
Grad RMS
SciTegic.value.DoubleValue
0.000000

@<SCITEGIC>MOL_PROPERTY
U
SciTegic.value.DoubleValue
5.336

@<SCITEGIC>MOL_PROPERTY
W
SciTegic.value.DoubleValue
-2.088

@<SCITEGIC>MOL_PROPERTY
W(PB)
SciTegic.value.DoubleValue
-4.098

@<SCITEGIC>MOL_PROPERTY
W(SA)
SciTegic.value.DoubleValue
2.010

@<SCITEGIC>MOL_PROPERTY
Valence
SciTegic.value.DoubleValue
12.390

@<SCITEGIC>MOL_PROPERTY
Coulomb
SciTegic.value.DoubleValue
-9.270

@<SCITEGIC>MOL_PROPERTY
VdW
SciTegic.value.DoubleValue
2.216

@<SCITEGIC>MOL_PROPERTY
VdW6
SciTegic.value.DoubleValue
-8.967

@<SCITEGIC>MOL_PROPERTY
VdW12
SciTegic.value.DoubleValue
11.183

@<SCITEGIC>MOL_PROPERTY
Bond
SciTegic.value.DoubleValue
0.218

@<SCITEGIC>MOL_PROPERTY
Angle
SciTegic.value.DoubleValue
2.426

@<SCITEGIC>MOL_PROPERTY
Pdih
SciTegic.value.DoubleValue
9.745

@<SCITEGIC>MOL_PROPERTY
Idih
SciTegic.value.DoubleValue
0.000

@<SCITEGIC>MOL_PROPERTY
Tether
SciTegic.value.DoubleValue
0.000

@<TRIPOS>MOLECULE
guest-5_confgen4.mol2 : confsearch ligand conformer 900
          22          22           1
SMALL
USER_CHARGES
 
@<TRIPOS>ATOM
       1    C1      18.981785   18.041250   22.496986 C.3        1 MOL1        -0.1685
       2    H1      18.281084   17.628918   23.235757 H          1 MOL1         0.0832
       3    H2      18.854598   17.430936   21.592467 H          1 MOL1         0.0832
       4    C2      20.420227   17.848271   23.033939 C.3        1 MOL1        -0.1685
       5    H3      20.426529   17.987164   24.123502 H          1 MOL1         0.0832
       6    H4      20.705952   16.800297   22.869945 H          1 MOL1         0.0832
       7    C3      21.486808   18.765924   22.392175 C.3        1 MOL1        -0.1685
       8    H5      21.288707   18.910637   21.321358 H          1 MOL1         0.0832
       9    H6      22.457877   18.256797   22.456263 H          1 MOL1         0.0832
      10    C4      21.620067   20.129263   23.117177 C.3        1 MOL1        -0.1761
      11    H7      21.745034   19.954804   24.193495 H          1 MOL1         0.0832
      12    H8      22.549187   20.612145   22.787063 H          1 MOL1         0.0832
      13    C5      20.461893   21.130950   22.906580 C.3        1 MOL1         0.1218
      14    H9      20.619850   21.952727   23.619903 H          1 MOL1         0.0789
      15    C6      19.044210   20.564425   23.170611 C.3        1 MOL1        -0.1761
      16    H10     18.986264   20.168316   24.192677 H          1 MOL1         0.0832
      17    H11     18.340265   21.406007   23.139162 H          1 MOL1         0.0832
      18    C7      18.563959   19.492100   22.158340 C.3        1 MOL1        -0.1685
      19    H12     17.467361   19.523070   22.104147 H          1 MOL1         0.0832
      20    H13     18.912034   19.744881   21.148198 H          1 MOL1         0.0832
      21    O1      20.537628   21.666490   21.589202 O.3        1 MOL1        -0.5509
      22    H14     19.760901   22.252435   21.481281 H          1 MOL1         0.3779
@<TRIPOS>BOND
    1     1     2    1
    2     1     3    1
    3     1     4    1
    4     4     5    1
    5     4     6    1
    6     4     7    1
    7     7     8    1
    8     7     9    1
    9     7    10    1
   10    10    11    1
   11    10    12    1
   12    10    13    1
   13    13    14    1
   14    13    15    1
   15    15    16    1
   16    15    17    1
   17     1    18    1
   18    15    18    1
   19    18    19    1
   20    18    20    1
   21    13    21    1
   22    21    22    1
@<TRIPOS>SUBSTRUCTURE
       1 MOL1            1 RESIDUE      1      MOL     
@<SCITEGIC>MOL_PROPERTY
VConf Rank
SciTegic.value.IntegerValue
900

@<SCITEGIC>MOL_PROPERTY
Conf_Id
SciTegic.value.IntegerValue
95

@<SCITEGIC>MOL_PROPERTY
Delta U+W
SciTegic.value.DoubleValue
-2.289

@<SCITEGIC>MOL_PROPERTY
U+W
SciTegic.value.DoubleValue
4.134

@<SCITEGIC>MOL_PROPERTY
Grad RMS
SciTegic.value.DoubleValue
0.000000

@<SCITEGIC>MOL_PROPERTY
U
SciTegic.value.DoubleValue
6.373

@<SCITEGIC>MOL_PROPERTY
W
SciTegic.value.DoubleValue
-2.240

@<SCITEGIC>MOL_PROPERTY
W(PB)
SciTegic.value.DoubleValue
-4.254

@<SCITEGIC>MOL_PROPERTY
W(SA)
SciTegic.value.DoubleValue
2.015

@<SCITEGIC>MOL_PROPERTY
Valence
SciTegic.value.DoubleValue
12.093

@<SCITEGIC>MOL_PROPERTY
Coulomb
SciTegic.value.DoubleValue
-8.058

@<SCITEGIC>MOL_PROPERTY
VdW
SciTegic.value.DoubleValue
2.339

@<SCITEGIC>MOL_PROPERTY
VdW6
SciTegic.value.DoubleValue
-9.683

@<SCITEGIC>MOL_PROPERTY
VdW12
SciTegic.value.DoubleValue
12.022

@<SCITEGIC>MOL_PROPERTY
Bond
SciTegic.value.DoubleValue
0.268

@<SCITEGIC>MOL_PROPERTY
Angle
SciTegic.value.DoubleValue
3.005

@<SCITEGIC>MOL_PROPERTY
Pdih
SciTegic.value.DoubleValue
8.820

@<SCITEGIC>MOL_PROPERTY
Idih
SciTegic.value.DoubleValue
0.000

@<SCITEGIC>MOL_PROPERTY
Tether
SciTegic.value.DoubleValue
0.000

@<TRIPOS>MOLECULE
guest-5_confgen4.mol2 : confsearch ligand conformer 901
          22          22           1
SMALL
USER_CHARGES
 
@<TRIPOS>ATOM
       1    C1      20.208559   21.003343   24.024702 C.3        1 MOL1        -0.1685
       2    H1      19.692790   21.077106   24.991809 H          1 MOL1         0.0832
       3    H2      20.880261   21.871359   23.978305 H          1 MOL1         0.0832
       4    C2      19.151331   21.127464   22.901674 C.3        1 MOL1        -0.1685
       5    H3      18.222656   20.632969   23.217135 H          1 MOL1         0.0832
       6    H4      18.895298   22.190182   22.792690 H          1 MOL1         0.0832
       7    C3      19.588365   20.572654   21.525918 C.3        1 MOL1        -0.1685
       8    H5      20.650035   20.782119   21.336708 H          1 MOL1         0.0832
       9    H6      19.028301   21.110092   20.748799 H          1 MOL1         0.0832
      10    C4      19.284555   19.061422   21.367221 C.3        1 MOL1        -0.1761
      11    H7      18.239544   18.874168   21.646120 H          1 MOL1         0.0832
      12    H8      19.353182   18.799463   20.303430 H          1 MOL1         0.0832
      13    C5      20.190117   18.096144   22.165927 C.3        1 MOL1         0.1218
      14    H9      19.738859   17.096732   22.084425 H          1 MOL1         0.0789
      15    C6      20.319514   18.414166   23.676705 C.3        1 MOL1        -0.1761
      16    H10     19.326511   18.423388   24.143984 H          1 MOL1         0.0832
      17    H11     20.860566   17.578364   24.138796 H          1 MOL1         0.0832
      18    C7      21.079052   19.724101   24.012284 C.3        1 MOL1        -0.1685
      19    H12     21.540062   19.620196   25.003692 H          1 MOL1         0.0832
      20    H13     21.917159   19.858452   23.315760 H          1 MOL1         0.0832
      21    O1      21.479859   18.051002   21.563082 O.3        1 MOL1        -0.5509
      22    H14     21.339760   17.864930   20.612327 H          1 MOL1         0.3779
@<TRIPOS>BOND
    1     1     2    1
    2     1     3    1
    3     1     4    1
    4     4     5    1
    5     4     6    1
    6     4     7    1
    7     7     8    1
    8     7     9    1
    9     7    10    1
   10    10    11    1
   11    10    12    1
   12    10    13    1
   13    13    14    1
   14    13    15    1
   15    15    16    1
   16    15    17    1
   17     1    18    1
   18    15    18    1
   19    18    19    1
   20    18    20    1
   21    13    21    1
   22    21    22    1
@<TRIPOS>SUBSTRUCTURE
       1 MOL1            1 RESIDUE      1      MOL     
@<SCITEGIC>MOL_PROPERTY
VConf Rank
SciTegic.value.IntegerValue
901

@<SCITEGIC>MOL_PROPERTY
Conf_Id
SciTegic.value.IntegerValue
41

@<SCITEGIC>MOL_PROPERTY
Delta U+W
SciTegic.value.DoubleValue
-2.114

@<SCITEGIC>MOL_PROPERTY
U+W
SciTegic.value.DoubleValue
4.310

@<SCITEGIC>MOL_PROPERTY
Grad RMS
SciTegic.value.DoubleValue
0.000000

@<SCITEGIC>MOL_PROPERTY
U
SciTegic.value.DoubleValue
6.598

@<SCITEGIC>MOL_PROPERTY
W
SciTegic.value.DoubleValue
-2.289

@<SCITEGIC>MOL_PROPERTY
W(PB)
SciTegic.value.DoubleValue
-4.294

@<SCITEGIC>MOL_PROPERTY
W(SA)
SciTegic.value.DoubleValue
2.005

@<SCITEGIC>MOL_PROPERTY
Valence
SciTegic.value.DoubleValue
12.082

@<SCITEGIC>MOL_PROPERTY
Coulomb
SciTegic.value.DoubleValue
-7.801

@<SCITEGIC>MOL_PROPERTY
VdW
SciTegic.value.DoubleValue
2.317

@<SCITEGIC>MOL_PROPERTY
VdW6
SciTegic.value.DoubleValue
-9.658

@<SCITEGIC>MOL_PROPERTY
VdW12
SciTegic.value.DoubleValue
11.975

@<SCITEGIC>MOL_PROPERTY
Bond
SciTegic.value.DoubleValue
0.267

@<SCITEGIC>MOL_PROPERTY
Angle
SciTegic.value.DoubleValue
3.051

@<SCITEGIC>MOL_PROPERTY
Pdih
SciTegic.value.DoubleValue
8.764

@<SCITEGIC>MOL_PROPERTY
Idih
SciTegic.value.DoubleValue
0.000

@<SCITEGIC>MOL_PROPERTY
Tether
SciTegic.value.DoubleValue
0.000

@<TRIPOS>MOLECULE
guest-5_confgen4.mol2 : confsearch ligand conformer 902
          22          22           1
SMALL
USER_CHARGES
 
@<TRIPOS>ATOM
       1    C1      21.531350   19.763457   21.917910 C.3        1 MOL1        -0.1685
       2    H1      22.474655   20.147332   21.506370 H          1 MOL1         0.0832
       3    H2      21.578008   18.669542   21.826523 H          1 MOL1         0.0832
       4    C2      20.375603   20.334197   21.065917 C.3        1 MOL1        -0.1685
       5    H3      20.306983   21.419667   21.219632 H          1 MOL1         0.0832
       6    H4      20.620737   20.195338   20.004226 H          1 MOL1         0.0832
       7    C3      18.998513   19.687930   21.332716 C.3        1 MOL1        -0.1685
       8    H5      19.007815   18.648587   20.978360 H          1 MOL1         0.0832
       9    H6      18.256055   20.204282   20.709609 H          1 MOL1         0.0832
      10    C4      18.519313   19.741493   22.808753 C.3        1 MOL1        -0.1761
      11    H7      18.583191   20.769102   23.188487 H          1 MOL1         0.0832
      12    H8      17.451743   19.487061   22.820701 H          1 MOL1         0.0832
      13    C5      19.230392   18.773187   23.788947 C.3        1 MOL1         0.1218
      14    H9      18.587737   18.696324   24.677971 H          1 MOL1         0.0789
      15    C6      20.621494   19.229208   24.300828 C.3        1 MOL1        -0.1761
      16    H10     20.479643   19.727128   25.268824 H          1 MOL1         0.0832
      17    H11     21.230526   18.342277   24.519696 H          1 MOL1         0.0832
      18    C7      21.443843   20.185034   23.401363 C.3        1 MOL1        -0.1685
      19    H12     21.041950   21.204578   23.475023 H          1 MOL1         0.0832
      20    H13     22.461406   20.239498   23.811578 H          1 MOL1         0.0832
      21    O1      19.332651   17.471735   23.217383 O.3        1 MOL1        -0.5509
      22    H14     19.750279   16.898672   23.891990 H          1 MOL1         0.3779
@<TRIPOS>BOND
    1     1     2    1
    2     1     3    1
    3     1     4    1
    4     4     5    1
    5     4     6    1
    6     4     7    1
    7     7     8    1
    8     7     9    1
    9     7    10    1
   10    10    11    1
   11    10    12    1
   12    10    13    1
   13    13    14    1
   14    13    15    1
   15    15    16    1
   16    15    17    1
   17     1    18    1
   18    15    18    1
   19    18    19    1
   20    18    20    1
   21    13    21    1
   22    21    22    1
@<TRIPOS>SUBSTRUCTURE
       1 MOL1            1 RESIDUE      1      MOL     
@<SCITEGIC>MOL_PROPERTY
VConf Rank
SciTegic.value.IntegerValue
902

@<SCITEGIC>MOL_PROPERTY
Conf_Id
SciTegic.value.IntegerValue
104

@<SCITEGIC>MOL_PROPERTY
Delta U+W
SciTegic.value.DoubleValue
-1.172

@<SCITEGIC>MOL_PROPERTY
U+W
SciTegic.value.DoubleValue
5.252

@<SCITEGIC>MOL_PROPERTY
Grad RMS
SciTegic.value.DoubleValue
0.000000

@<SCITEGIC>MOL_PROPERTY
U
SciTegic.value.DoubleValue
7.482

@<SCITEGIC>MOL_PROPERTY
W
SciTegic.value.DoubleValue
-2.230

@<SCITEGIC>MOL_PROPERTY
W(PB)
SciTegic.value.DoubleValue
-4.220

@<SCITEGIC>MOL_PROPERTY
W(SA)
SciTegic.value.DoubleValue
1.990

@<SCITEGIC>MOL_PROPERTY
Valence
SciTegic.value.DoubleValue
12.309

@<SCITEGIC>MOL_PROPERTY
Coulomb
SciTegic.value.DoubleValue
-7.084

@<SCITEGIC>MOL_PROPERTY
VdW
SciTegic.value.DoubleValue
2.258

@<SCITEGIC>MOL_PROPERTY
VdW6
SciTegic.value.DoubleValue
-9.770

@<SCITEGIC>MOL_PROPERTY
VdW12
SciTegic.value.DoubleValue
12.028

@<SCITEGIC>MOL_PROPERTY
Bond
SciTegic.value.DoubleValue
0.284

@<SCITEGIC>MOL_PROPERTY
Angle
SciTegic.value.DoubleValue
3.491

@<SCITEGIC>MOL_PROPERTY
Pdih
SciTegic.value.DoubleValue
8.535

@<SCITEGIC>MOL_PROPERTY
Idih
SciTegic.value.DoubleValue
0.000

@<SCITEGIC>MOL_PROPERTY
Tether
SciTegic.value.DoubleValue
0.000

@<TRIPOS>MOLECULE
guest-5_confgen4.mol2 : confsearch ligand conformer 903
          22          22           1
SMALL
USER_CHARGES
 
@<TRIPOS>ATOM
       1    C1      21.286357   19.659162   23.767197 C.3        1 MOL1        -0.1685
       2    H1      21.284878   20.757276   23.792239 H          1 MOL1         0.0832
       3    H2      22.090266   19.342550   24.445745 H          1 MOL1         0.0832
       4    C2      21.629826   19.139571   22.352440 C.3        1 MOL1        -0.1685
       5    H3      22.717990   19.198537   22.212192 H          1 MOL1         0.0832
       6    H4      21.393265   18.069256   22.290778 H          1 MOL1         0.0832
       7    C3      20.960953   19.897712   21.177917 C.3        1 MOL1        -0.1685
       8    H5      20.894294   19.217257   20.317770 H          1 MOL1         0.0832
       9    H6      21.633144   20.705774   20.858350 H          1 MOL1         0.0832
      10    C4      19.565388   20.526321   21.439552 C.3        1 MOL1        -0.1761
      11    H7      19.693187   21.467155   21.990419 H          1 MOL1         0.0832
      12    H8      19.137304   20.815928   20.471114 H          1 MOL1         0.0832
      13    C5      18.527560   19.653468   22.181860 C.3        1 MOL1         0.1218
      14    H9      17.532009   20.052968   21.940698 H          1 MOL1         0.0789
      15    C6      18.675789   19.721107   23.718649 C.3        1 MOL1        -0.1761
      16    H10     18.616460   20.771611   24.031672 H          1 MOL1         0.0832
      17    H11     17.803540   19.229090   24.168478 H          1 MOL1         0.0832
      18    C7      19.957060   19.090444   24.318149 C.3        1 MOL1        -0.1685
      19    H12     19.935863   19.253986   25.404204 H          1 MOL1         0.0832
      20    H13     19.933796   18.000575   24.183529 H          1 MOL1         0.0832
      21    O1      18.603077   18.306312   21.741817 O.3        1 MOL1        -0.5509
      22    H14     19.531703   18.051462   21.912088 H          1 MOL1         0.3779
@<TRIPOS>BOND
    1     1     2    1
    2     1     3    1
    3     1     4    1
    4     4     5    1
    5     4     6    1
    6     4     7    1
    7     7     8    1
    8     7     9    1
    9     7    10    1
   10    10    11    1
   11    10    12    1
   12    10    13    1
   13    13    14    1
   14    13    15    1
   15    15    16    1
   16    15    17    1
   17     1    18    1
   18    15    18    1
   19    18    19    1
   20    18    20    1
   21    13    21    1
   22    21    22    1
@<TRIPOS>SUBSTRUCTURE
       1 MOL1            1 RESIDUE      1      MOL     
@<SCITEGIC>MOL_PROPERTY
VConf Rank
SciTegic.value.IntegerValue
903

@<SCITEGIC>MOL_PROPERTY
Conf_Id
SciTegic.value.IntegerValue
99

@<SCITEGIC>MOL_PROPERTY
Delta U+W
SciTegic.value.DoubleValue
-3.852

@<SCITEGIC>MOL_PROPERTY
U+W
SciTegic.value.DoubleValue
2.572

@<SCITEGIC>MOL_PROPERTY
Grad RMS
SciTegic.value.DoubleValue
0.000000

@<SCITEGIC>MOL_PROPERTY
U
SciTegic.value.DoubleValue
3.922

@<SCITEGIC>MOL_PROPERTY
W
SciTegic.value.DoubleValue
-1.350

@<SCITEGIC>MOL_PROPERTY
W(PB)
SciTegic.value.DoubleValue
-3.345

@<SCITEGIC>MOL_PROPERTY
W(SA)
SciTegic.value.DoubleValue
1.995

@<SCITEGIC>MOL_PROPERTY
Valence
SciTegic.value.DoubleValue
12.571

@<SCITEGIC>MOL_PROPERTY
Coulomb
SciTegic.value.DoubleValue
-10.581

@<SCITEGIC>MOL_PROPERTY
VdW
SciTegic.value.DoubleValue
1.932

@<SCITEGIC>MOL_PROPERTY
VdW6
SciTegic.value.DoubleValue
-10.483

@<SCITEGIC>MOL_PROPERTY
VdW12
SciTegic.value.DoubleValue
12.415

@<SCITEGIC>MOL_PROPERTY
Bond
SciTegic.value.DoubleValue
0.268

@<SCITEGIC>MOL_PROPERTY
Angle
SciTegic.value.DoubleValue
3.728

@<SCITEGIC>MOL_PROPERTY
Pdih
SciTegic.value.DoubleValue
8.575

@<SCITEGIC>MOL_PROPERTY
Idih
SciTegic.value.DoubleValue
0.000

@<SCITEGIC>MOL_PROPERTY
Tether
SciTegic.value.DoubleValue
0.000

@<TRIPOS>MOLECULE
guest-5_confgen4.mol2 : confsearch ligand conformer 904
          22          22           1
SMALL
USER_CHARGES
 
@<TRIPOS>ATOM
       1    C1      18.721539   19.028026   21.883502 C.3        1 MOL1        -0.1685
       2    H1      18.106841   18.910474   20.980386 H          1 MOL1         0.0832
       3    H2      18.177527   18.486191   22.668690 H          1 MOL1         0.0832
       4    C2      18.784236   20.545894   22.224086 C.3        1 MOL1        -0.1685
       5    H3      18.196541   21.085304   21.468479 H          1 MOL1         0.0832
       6    H4      18.270834   20.741888   23.174906 H          1 MOL1         0.0832
       7    C3      20.200053   21.175952   22.259296 C.3        1 MOL1        -0.1685
       8    H5      20.092084   22.267745   22.314597 H          1 MOL1         0.0832
       9    H6      20.708720   20.997357   21.303822 H          1 MOL1         0.0832
      10    C4      21.115676   20.728917   23.432592 C.3        1 MOL1        -0.1761
      11    H7      22.158489   20.910336   23.142125 H          1 MOL1         0.0832
      12    H8      20.932964   21.393392   24.287627 H          1 MOL1         0.0832
      13    C5      20.995055   19.271053   23.940764 C.3        1 MOL1         0.1218
      14    H9      21.859281   19.088489   24.595408 H          1 MOL1         0.0789
      15    C6      21.009551   18.164462   22.857533 C.3        1 MOL1        -0.1761
      16    H10     22.039857   18.042607   22.499258 H          1 MOL1         0.0832
      17    H11     20.759831   17.215561   23.350709 H          1 MOL1         0.0832
      18    C7      20.082676   18.334057   21.621837 C.3        1 MOL1        -0.1685
      19    H12     20.620706   18.862559   20.825108 H          1 MOL1         0.0832
      20    H13     19.888367   17.335193   21.208028 H          1 MOL1         0.0832
      21    O1      19.829663   19.140156   24.739494 O.3        1 MOL1        -0.5509
      22    H14     19.095380   19.310289   24.115943 H          1 MOL1         0.3779
@<TRIPOS>BOND
    1     1     2    1
    2     1     3    1
    3     1     4    1
    4     4     5    1
    5     4     6    1
    6     4     7    1
    7     7     8    1
    8     7     9    1
    9     7    10    1
   10    10    11    1
   11    10    12    1
   12    10    13    1
   13    13    14    1
   14    13    15    1
   15    15    16    1
   16    15    17    1
   17     1    18    1
   18    15    18    1
   19    18    19    1
   20    18    20    1
   21    13    21    1
   22    21    22    1
@<TRIPOS>SUBSTRUCTURE
       1 MOL1            1 RESIDUE      1      MOL     
@<SCITEGIC>MOL_PROPERTY
VConf Rank
SciTegic.value.IntegerValue
904

@<SCITEGIC>MOL_PROPERTY
Conf_Id
SciTegic.value.IntegerValue
98

@<SCITEGIC>MOL_PROPERTY
Delta U+W
SciTegic.value.DoubleValue
0.930

@<SCITEGIC>MOL_PROPERTY
U+W
SciTegic.value.DoubleValue
7.353

@<SCITEGIC>MOL_PROPERTY
Grad RMS
SciTegic.value.DoubleValue
0.000000

@<SCITEGIC>MOL_PROPERTY
U
SciTegic.value.DoubleValue
8.455

@<SCITEGIC>MOL_PROPERTY
W
SciTegic.value.DoubleValue
-1.102

@<SCITEGIC>MOL_PROPERTY
W(PB)
SciTegic.value.DoubleValue
-3.101

@<SCITEGIC>MOL_PROPERTY
W(SA)
SciTegic.value.DoubleValue
2.000

@<SCITEGIC>MOL_PROPERTY
Valence
SciTegic.value.DoubleValue
15.601

@<SCITEGIC>MOL_PROPERTY
Coulomb
SciTegic.value.DoubleValue
-10.573

@<SCITEGIC>MOL_PROPERTY
VdW
SciTegic.value.DoubleValue
3.427

@<SCITEGIC>MOL_PROPERTY
VdW6
SciTegic.value.DoubleValue
-11.360

@<SCITEGIC>MOL_PROPERTY
VdW12
SciTegic.value.DoubleValue
14.787

@<SCITEGIC>MOL_PROPERTY
Bond
SciTegic.value.DoubleValue
0.471

@<SCITEGIC>MOL_PROPERTY
Angle
SciTegic.value.DoubleValue
5.445

@<SCITEGIC>MOL_PROPERTY
Pdih
SciTegic.value.DoubleValue
9.685

@<SCITEGIC>MOL_PROPERTY
Idih
SciTegic.value.DoubleValue
0.000

@<SCITEGIC>MOL_PROPERTY
Tether
SciTegic.value.DoubleValue
0.000

@<TRIPOS>MOLECULE
guest-5_confgen4.mol2 : confsearch ligand conformer 905
          22          22           1
SMALL
USER_CHARGES
 
@<TRIPOS>ATOM
       1    C1      18.686149   18.480186   22.931204 C.3        1 MOL1        -0.1685
       2    H1      19.387734   17.645846   22.803009 H          1 MOL1         0.0832
       3    H2      17.726163   18.009338   23.183081 H          1 MOL1         0.0832
       4    C2      18.525797   19.240625   21.590242 C.3        1 MOL1        -0.1685
       5    H3      18.155192   18.523062   20.845506 H          1 MOL1         0.0832
       6    H4      17.737906   19.999527   21.689831 H          1 MOL1         0.0832
       7    C3      19.808735   19.908131   21.021779 C.3        1 MOL1        -0.1685
       8    H5      19.780155   20.990930   21.199946 H          1 MOL1         0.0832
       9    H6      19.794871   19.801082   19.928626 H          1 MOL1         0.0832
      10    C4      21.144111   19.330333   21.560881 C.3        1 MOL1        -0.1761
      11    H7      21.140120   18.240124   21.438182 H          1 MOL1         0.0832
      12    H8      21.958719   19.683510   20.914300 H          1 MOL1         0.0832
      13    C5      21.487630   19.677188   23.039244 C.3        1 MOL1         0.1218
      14    H9      21.820344   18.754003   23.535327 H          1 MOL1         0.0789
      15    C6      20.335875   20.287480   23.876658 C.3        1 MOL1        -0.1761
      16    H10     20.731856   20.598848   24.852007 H          1 MOL1         0.0832
      17    H11     19.985010   21.212217   23.403007 H          1 MOL1         0.0832
      18    C7      19.130416   19.348534   24.131720 C.3        1 MOL1        -0.1685
      19    H12     19.372894   18.677796   24.967261 H          1 MOL1         0.0832
      20    H13     18.280776   19.956835   24.470473 H          1 MOL1         0.0832
      21    O1      22.560679   20.611910   23.045158 O.3        1 MOL1        -0.5509
      22    H14     22.794123   20.768297   23.983894 H          1 MOL1         0.3779
@<TRIPOS>BOND
    1     1     2    1
    2     1     3    1
    3     1     4    1
    4     4     5    1
    5     4     6    1
    6     4     7    1
    7     7     8    1
    8     7     9    1
    9     7    10    1
   10    10    11    1
   11    10    12    1
   12    10    13    1
   13    13    14    1
   14    13    15    1
   15    15    16    1
   16    15    17    1
   17     1    18    1
   18    15    18    1
   19    18    19    1
   20    18    20    1
   21    13    21    1
   22    21    22    1
@<TRIPOS>SUBSTRUCTURE
       1 MOL1            1 RESIDUE      1      MOL     
@<SCITEGIC>MOL_PROPERTY
VConf Rank
SciTegic.value.IntegerValue
905

@<SCITEGIC>MOL_PROPERTY
Conf_Id
SciTegic.value.IntegerValue
141

@<SCITEGIC>MOL_PROPERTY
Delta U+W
SciTegic.value.DoubleValue
0.000

@<SCITEGIC>MOL_PROPERTY
U+W
SciTegic.value.DoubleValue
6.423

@<SCITEGIC>MOL_PROPERTY
Grad RMS
SciTegic.value.DoubleValue
0.000000

@<SCITEGIC>MOL_PROPERTY
U
SciTegic.value.DoubleValue
8.781

@<SCITEGIC>MOL_PROPERTY
W
SciTegic.value.DoubleValue
-2.358

@<SCITEGIC>MOL_PROPERTY
W(PB)
SciTegic.value.DoubleValue
-4.373

@<SCITEGIC>MOL_PROPERTY
W(SA)
SciTegic.value.DoubleValue
2.015

@<SCITEGIC>MOL_PROPERTY
Valence
SciTegic.value.DoubleValue
13.328

@<SCITEGIC>MOL_PROPERTY
Coulomb
SciTegic.value.DoubleValue
-8.387

@<SCITEGIC>MOL_PROPERTY
VdW
SciTegic.value.DoubleValue
3.840

@<SCITEGIC>MOL_PROPERTY
VdW6
SciTegic.value.DoubleValue
-9.744

@<SCITEGIC>MOL_PROPERTY
VdW12
SciTegic.value.DoubleValue
13.584

@<SCITEGIC>MOL_PROPERTY
Bond
SciTegic.value.DoubleValue
0.436

@<SCITEGIC>MOL_PROPERTY
Angle
SciTegic.value.DoubleValue
3.478

@<SCITEGIC>MOL_PROPERTY
Pdih
SciTegic.value.DoubleValue
9.415

@<SCITEGIC>MOL_PROPERTY
Idih
SciTegic.value.DoubleValue
0.000

@<SCITEGIC>MOL_PROPERTY
Tether
SciTegic.value.DoubleValue
0.000

@<TRIPOS>MOLECULE
guest-5_confgen4.mol2 : confsearch ligand conformer 906
          22          22           1
SMALL
USER_CHARGES
 
@<TRIPOS>ATOM
       1    C1      21.125761   20.918569   22.871760 C.3        1 MOL1        -0.1685
       2    H1      20.285332   21.625293   22.842977 H          1 MOL1         0.0832
       3    H2      22.023764   21.522231   23.061728 H          1 MOL1         0.0832
       4    C2      21.309766   20.221228   21.502266 C.3        1 MOL1        -0.1685
       5    H3      21.658613   20.966334   20.774270 H          1 MOL1         0.0832
       6    H4      22.115065   19.477780   21.577477 H          1 MOL1         0.0832
       7    C3      20.041977   19.545613   20.930789 C.3        1 MOL1        -0.1685
       8    H5      20.317474   19.033422   19.998808 H          1 MOL1         0.0832
       9    H6      19.314624   20.317628   20.644589 H          1 MOL1         0.0832
      10    C4      19.363804   18.522887   21.874872 C.3        1 MOL1        -0.1761
      11    H7      18.634576   17.955995   21.281285 H          1 MOL1         0.0832
      12    H8      20.094639   17.790444   22.241483 H          1 MOL1         0.0832
      13    C5      18.632625   19.196569   23.057731 C.3        1 MOL1         0.1218
      14    H9      18.242727   20.165569   22.714421 H          1 MOL1         0.0789
      15    C6      19.515868   19.442619   24.302174 C.3        1 MOL1        -0.1761
      16    H10     19.007926   20.188960   24.926529 H          1 MOL1         0.0832
      17    H11     19.558498   18.525373   24.904629 H          1 MOL1         0.0832
      18    C7      20.966947   19.917792   24.040206 C.3        1 MOL1        -0.1685
      19    H12     21.343472   20.382525   24.961659 H          1 MOL1         0.0832
      20    H13     21.612888   19.046670   23.865232 H          1 MOL1         0.0832
      21    O1      17.539350   18.374909   23.448682 O.3        1 MOL1        -0.5509
      22    H14     16.953360   18.294099   22.667206 H          1 MOL1         0.3779
@<TRIPOS>BOND
    1     1     2    1
    2     1     3    1
    3     1     4    1
    4     4     5    1
    5     4     6    1
    6     4     7    1
    7     7     8    1
    8     7     9    1
    9     7    10    1
   10    10    11    1
   11    10    12    1
   12    10    13    1
   13    13    14    1
   14    13    15    1
   15    15    16    1
   16    15    17    1
   17     1    18    1
   18    15    18    1
   19    18    19    1
   20    18    20    1
   21    13    21    1
   22    21    22    1
@<TRIPOS>SUBSTRUCTURE
       1 MOL1            1 RESIDUE      1      MOL     
@<SCITEGIC>MOL_PROPERTY
VConf Rank
SciTegic.value.IntegerValue
906

@<SCITEGIC>MOL_PROPERTY
Conf_Id
SciTegic.value.IntegerValue
144

@<SCITEGIC>MOL_PROPERTY
Delta U+W
SciTegic.value.DoubleValue
-3.291

@<SCITEGIC>MOL_PROPERTY
U+W
SciTegic.value.DoubleValue
3.132

@<SCITEGIC>MOL_PROPERTY
Grad RMS
SciTegic.value.DoubleValue
0.000000

@<SCITEGIC>MOL_PROPERTY
U
SciTegic.value.DoubleValue
5.411

@<SCITEGIC>MOL_PROPERTY
W
SciTegic.value.DoubleValue
-2.279

@<SCITEGIC>MOL_PROPERTY
W(PB)
SciTegic.value.DoubleValue
-4.300

@<SCITEGIC>MOL_PROPERTY
W(SA)
SciTegic.value.DoubleValue
2.021

@<SCITEGIC>MOL_PROPERTY
Valence
SciTegic.value.DoubleValue
11.909

@<SCITEGIC>MOL_PROPERTY
Coulomb
SciTegic.value.DoubleValue
-8.733

@<SCITEGIC>MOL_PROPERTY
VdW
SciTegic.value.DoubleValue
2.236

@<SCITEGIC>MOL_PROPERTY
VdW6
SciTegic.value.DoubleValue
-8.936

@<SCITEGIC>MOL_PROPERTY
VdW12
SciTegic.value.DoubleValue
11.172

@<SCITEGIC>MOL_PROPERTY
Bond
SciTegic.value.DoubleValue
0.223

@<SCITEGIC>MOL_PROPERTY
Angle
SciTegic.value.DoubleValue
2.457

@<SCITEGIC>MOL_PROPERTY
Pdih
SciTegic.value.DoubleValue
9.228

@<SCITEGIC>MOL_PROPERTY
Idih
SciTegic.value.DoubleValue
0.000

@<SCITEGIC>MOL_PROPERTY
Tether
SciTegic.value.DoubleValue
0.000

@<TRIPOS>MOLECULE
guest-5_confgen4.mol2 : confsearch ligand conformer 907
          22          22           1
SMALL
USER_CHARGES
 
@<TRIPOS>ATOM
       1    C1      20.464666   18.002138   22.085436 C.3        1 MOL1        -0.1685
       2    H1      21.059860   17.118088   21.818808 H          1 MOL1         0.0832
       3    H2      19.429468   17.768321   21.801927 H          1 MOL1         0.0832
       4    C2      21.001049   19.203085   21.271743 C.3        1 MOL1        -0.1685
       5    H3      21.881553   19.622921   21.776939 H          1 MOL1         0.0832
       6    H4      21.365806   18.840139   20.301062 H          1 MOL1         0.0832
       7    C3      19.970956   20.326939   21.003825 C.3        1 MOL1        -0.1685
       8    H5      19.369071   20.058009   20.125003 H          1 MOL1         0.0832
       9    H6      20.520950   21.235244   20.721856 H          1 MOL1         0.0832
      10    C4      19.004033   20.663469   22.165698 C.3        1 MOL1        -0.1761
      11    H7      18.579587   21.657861   21.972047 H          1 MOL1         0.0832
      12    H8      18.155348   19.967743   22.141342 H          1 MOL1         0.0832
      13    C5      19.643041   20.640683   23.572376 C.3        1 MOL1         0.1218
      14    H9      20.684107   20.988112   23.509575 H          1 MOL1         0.0789
      15    C6      19.602799   19.237297   24.218802 C.3        1 MOL1        -0.1761
      16    H10     19.830404   19.336243   25.288632 H          1 MOL1         0.0832
      17    H11     18.582314   18.836762   24.161634 H          1 MOL1         0.0832
      18    C7      20.586478   18.207286   23.614510 C.3        1 MOL1        -0.1685
      19    H12     21.616317   18.498480   23.862629 H          1 MOL1         0.0832
      20    H13     20.420607   17.241852   24.111714 H          1 MOL1         0.0832
      21    O1      18.912785   21.527578   24.409249 O.3        1 MOL1        -0.5509
      22    H14     17.994875   21.187375   24.438621 H          1 MOL1         0.3779
@<TRIPOS>BOND
    1     1     2    1
    2     1     3    1
    3     1     4    1
    4     4     5    1
    5     4     6    1
    6     4     7    1
    7     7     8    1
    8     7     9    1
    9     7    10    1
   10    10    11    1
   11    10    12    1
   12    10    13    1
   13    13    14    1
   14    13    15    1
   15    15    16    1
   16    15    17    1
   17     1    18    1
   18    15    18    1
   19    18    19    1
   20    18    20    1
   21    13    21    1
   22    21    22    1
@<TRIPOS>SUBSTRUCTURE
       1 MOL1            1 RESIDUE      1      MOL     
@<SCITEGIC>MOL_PROPERTY
VConf Rank
SciTegic.value.IntegerValue
907

@<SCITEGIC>MOL_PROPERTY
Conf_Id
SciTegic.value.IntegerValue
76

@<SCITEGIC>MOL_PROPERTY
Delta U+W
SciTegic.value.DoubleValue
-3.175

@<SCITEGIC>MOL_PROPERTY
U+W
SciTegic.value.DoubleValue
3.248

@<SCITEGIC>MOL_PROPERTY
Grad RMS
SciTegic.value.DoubleValue
0.000000

@<SCITEGIC>MOL_PROPERTY
U
SciTegic.value.DoubleValue
5.336

@<SCITEGIC>MOL_PROPERTY
W
SciTegic.value.DoubleValue
-2.088

@<SCITEGIC>MOL_PROPERTY
W(PB)
SciTegic.value.DoubleValue
-4.098

@<SCITEGIC>MOL_PROPERTY
W(SA)
SciTegic.value.DoubleValue
2.010

@<SCITEGIC>MOL_PROPERTY
Valence
SciTegic.value.DoubleValue
12.390

@<SCITEGIC>MOL_PROPERTY
Coulomb
SciTegic.value.DoubleValue
-9.270

@<SCITEGIC>MOL_PROPERTY
VdW
SciTegic.value.DoubleValue
2.216

@<SCITEGIC>MOL_PROPERTY
VdW6
SciTegic.value.DoubleValue
-8.967

@<SCITEGIC>MOL_PROPERTY
VdW12
SciTegic.value.DoubleValue
11.183

@<SCITEGIC>MOL_PROPERTY
Bond
SciTegic.value.DoubleValue
0.218

@<SCITEGIC>MOL_PROPERTY
Angle
SciTegic.value.DoubleValue
2.426

@<SCITEGIC>MOL_PROPERTY
Pdih
SciTegic.value.DoubleValue
9.745

@<SCITEGIC>MOL_PROPERTY
Idih
SciTegic.value.DoubleValue
0.000

@<SCITEGIC>MOL_PROPERTY
Tether
SciTegic.value.DoubleValue
0.000

@<TRIPOS>MOLECULE
guest-5_confgen4.mol2 : confsearch ligand conformer 908
          22          22           1
SMALL
USER_CHARGES
 
@<TRIPOS>ATOM
       1    C1      19.577510   21.252465   22.052540 C.3        1 MOL1        -0.1685
       2    H1      19.633042   22.206654   22.594038 H          1 MOL1         0.0832
       3    H2      19.252581   21.506069   21.034247 H          1 MOL1         0.0832
       4    C2      18.490564   20.378269   22.722619 C.3        1 MOL1        -0.1685
       5    H3      18.508523   20.539674   23.808945 H          1 MOL1         0.0832
       6    H4      17.509195   20.741296   22.388090 H          1 MOL1         0.0832
       7    C3      18.593802   18.864090   22.425724 C.3        1 MOL1        -0.1685
       8    H5      18.914602   18.687017   21.390076 H          1 MOL1         0.0832
       9    H6      17.588402   18.430400   22.511600 H          1 MOL1         0.0832
      10    C4      19.516101   18.118511   23.423500 C.3        1 MOL1        -0.1761
      11    H7      19.217133   18.370961   24.448878 H          1 MOL1         0.0832
      12    H8      19.341201   17.039309   23.322769 H          1 MOL1         0.0832
      13    C5      21.033304   18.371353   23.270979 C.3        1 MOL1         0.1218
      14    H9      21.519083   17.925021   24.150697 H          1 MOL1         0.0789
      15    C6      21.451886   19.862432   23.226679 C.3        1 MOL1        -0.1761
      16    H10     21.098142   20.375163   24.130476 H          1 MOL1         0.0832
      17    H11     22.547803   19.900187   23.274926 H          1 MOL1         0.0832
      18    C7      20.994830   20.638006   21.963824 C.3        1 MOL1        -0.1685
      19    H12     21.704783   21.454323   21.774045 H          1 MOL1         0.0832
      20    H13     21.055608   19.988844   21.080458 H          1 MOL1         0.0832
      21    O1      21.508078   17.694861   22.111250 O.3        1 MOL1        -0.5509
      22    H14     22.456046   17.922904   22.023865 H          1 MOL1         0.3779
@<TRIPOS>BOND
    1     1     2    1
    2     1     3    1
    3     1     4    1
    4     4     5    1
    5     4     6    1
    6     4     7    1
    7     7     8    1
    8     7     9    1
    9     7    10    1
   10    10    11    1
   11    10    12    1
   12    10    13    1
   13    13    14    1
   14    13    15    1
   15    15    16    1
   16    15    17    1
   17     1    18    1
   18    15    18    1
   19    18    19    1
   20    18    20    1
   21    13    21    1
   22    21    22    1
@<TRIPOS>SUBSTRUCTURE
       1 MOL1            1 RESIDUE      1      MOL     
@<SCITEGIC>MOL_PROPERTY
VConf Rank
SciTegic.value.IntegerValue
908

@<SCITEGIC>MOL_PROPERTY
Conf_Id
SciTegic.value.IntegerValue
95

@<SCITEGIC>MOL_PROPERTY
Delta U+W
SciTegic.value.DoubleValue
-2.289

@<SCITEGIC>MOL_PROPERTY
U+W
SciTegic.value.DoubleValue
4.134

@<SCITEGIC>MOL_PROPERTY
Grad RMS
SciTegic.value.DoubleValue
0.000000

@<SCITEGIC>MOL_PROPERTY
U
SciTegic.value.DoubleValue
6.373

@<SCITEGIC>MOL_PROPERTY
W
SciTegic.value.DoubleValue
-2.240

@<SCITEGIC>MOL_PROPERTY
W(PB)
SciTegic.value.DoubleValue
-4.254

@<SCITEGIC>MOL_PROPERTY
W(SA)
SciTegic.value.DoubleValue
2.015

@<SCITEGIC>MOL_PROPERTY
Valence
SciTegic.value.DoubleValue
12.093

@<SCITEGIC>MOL_PROPERTY
Coulomb
SciTegic.value.DoubleValue
-8.058

@<SCITEGIC>MOL_PROPERTY
VdW
SciTegic.value.DoubleValue
2.339

@<SCITEGIC>MOL_PROPERTY
VdW6
SciTegic.value.DoubleValue
-9.683

@<SCITEGIC>MOL_PROPERTY
VdW12
SciTegic.value.DoubleValue
12.022

@<SCITEGIC>MOL_PROPERTY
Bond
SciTegic.value.DoubleValue
0.268

@<SCITEGIC>MOL_PROPERTY
Angle
SciTegic.value.DoubleValue
3.005

@<SCITEGIC>MOL_PROPERTY
Pdih
SciTegic.value.DoubleValue
8.820

@<SCITEGIC>MOL_PROPERTY
Idih
SciTegic.value.DoubleValue
0.000

@<SCITEGIC>MOL_PROPERTY
Tether
SciTegic.value.DoubleValue
0.000

@<TRIPOS>MOLECULE
guest-5_confgen4.mol2 : confsearch ligand conformer 909
          22          22           1
SMALL
USER_CHARGES
 
@<TRIPOS>ATOM
       1    C1      18.138881   19.530875   22.601651 C.3        1 MOL1        -0.1685
       2    H1      17.423257   20.360340   22.520259 H          1 MOL1         0.0832
       3    H2      17.535959   18.613095   22.570746 H          1 MOL1         0.0832
       4    C2      18.835662   19.626321   23.979953 C.3        1 MOL1        -0.1685
       5    H3      18.985356   20.682468   24.241915 H          1 MOL1         0.0832
       6    H4      18.144935   19.231358   24.737382 H          1 MOL1         0.0832
       7    C3      20.182214   18.873439   24.087121 C.3        1 MOL1        -0.1685
       8    H5      20.150113   17.928688   23.527447 H          1 MOL1         0.0832
       9    H6      20.335950   18.599320   25.139571 H          1 MOL1         0.0832
      10    C4      21.388097   19.739802   23.643760 C.3        1 MOL1        -0.1761
      11    H7      21.342032   20.708787   24.157416 H          1 MOL1         0.0832
      12    H8      22.311329   19.265039   24.000446 H          1 MOL1         0.0832
      13    C5      21.525266   19.991399   22.124675 C.3        1 MOL1         0.1218
      14    H9      22.309201   20.752029   21.998239 H          1 MOL1         0.0789
      15    C6      20.250772   20.532948   21.429892 C.3        1 MOL1        -0.1761
      16    H10     19.931979   21.467928   21.908088 H          1 MOL1         0.0832
      17    H11     20.530555   20.801585   20.403060 H          1 MOL1         0.0832
      18    C7      19.063545   19.537367   21.360955 C.3        1 MOL1        -0.1685
      19    H12     18.449321   19.781395   20.483803 H          1 MOL1         0.0832
      20    H13     19.438407   18.521580   21.178540 H          1 MOL1         0.0832
      21    O1      21.960501   18.795293   21.485306 O.3        1 MOL1        -0.5509
      22    H14     22.753007   18.488759   21.971266 H          1 MOL1         0.3779
@<TRIPOS>BOND
    1     1     2    1
    2     1     3    1
    3     1     4    1
    4     4     5    1
    5     4     6    1
    6     4     7    1
    7     7     8    1
    8     7     9    1
    9     7    10    1
   10    10    11    1
   11    10    12    1
   12    10    13    1
   13    13    14    1
   14    13    15    1
   15    15    16    1
   16    15    17    1
   17     1    18    1
   18    15    18    1
   19    18    19    1
   20    18    20    1
   21    13    21    1
   22    21    22    1
@<TRIPOS>SUBSTRUCTURE
       1 MOL1            1 RESIDUE      1      MOL     
@<SCITEGIC>MOL_PROPERTY
VConf Rank
SciTegic.value.IntegerValue
909

@<SCITEGIC>MOL_PROPERTY
Conf_Id
SciTegic.value.IntegerValue
41

@<SCITEGIC>MOL_PROPERTY
Delta U+W
SciTegic.value.DoubleValue
-2.114

@<SCITEGIC>MOL_PROPERTY
U+W
SciTegic.value.DoubleValue
4.310

@<SCITEGIC>MOL_PROPERTY
Grad RMS
SciTegic.value.DoubleValue
0.000000

@<SCITEGIC>MOL_PROPERTY
U
SciTegic.value.DoubleValue
6.598

@<SCITEGIC>MOL_PROPERTY
W
SciTegic.value.DoubleValue
-2.289

@<SCITEGIC>MOL_PROPERTY
W(PB)
SciTegic.value.DoubleValue
-4.294

@<SCITEGIC>MOL_PROPERTY
W(SA)
SciTegic.value.DoubleValue
2.005

@<SCITEGIC>MOL_PROPERTY
Valence
SciTegic.value.DoubleValue
12.082

@<SCITEGIC>MOL_PROPERTY
Coulomb
SciTegic.value.DoubleValue
-7.801

@<SCITEGIC>MOL_PROPERTY
VdW
SciTegic.value.DoubleValue
2.317

@<SCITEGIC>MOL_PROPERTY
VdW6
SciTegic.value.DoubleValue
-9.658

@<SCITEGIC>MOL_PROPERTY
VdW12
SciTegic.value.DoubleValue
11.975

@<SCITEGIC>MOL_PROPERTY
Bond
SciTegic.value.DoubleValue
0.267

@<SCITEGIC>MOL_PROPERTY
Angle
SciTegic.value.DoubleValue
3.051

@<SCITEGIC>MOL_PROPERTY
Pdih
SciTegic.value.DoubleValue
8.764

@<SCITEGIC>MOL_PROPERTY
Idih
SciTegic.value.DoubleValue
0.000

@<SCITEGIC>MOL_PROPERTY
Tether
SciTegic.value.DoubleValue
0.000

@<TRIPOS>MOLECULE
guest-5_confgen4.mol2 : confsearch ligand conformer 910
          22          22           1
SMALL
USER_CHARGES
 
@<TRIPOS>ATOM
       1    C1      20.509385   21.073870   22.227293 C.3        1 MOL1        -0.1685
       2    H1      20.569427   22.068133   21.764275 H          1 MOL1         0.0832
       3    H2      21.158164   21.107079   23.113386 H          1 MOL1         0.0832
       4    C2      21.034407   20.042107   21.203963 C.3        1 MOL1        -0.1685
       5    H3      20.339379   19.979403   20.355679 H          1 MOL1         0.0832
       6    H4      21.982739   20.410303   20.789646 H          1 MOL1         0.0832
       7    C3      21.274302   18.628990   21.779090 C.3        1 MOL1        -0.1685
       8    H5      22.120070   18.658025   22.478893 H          1 MOL1         0.0832
       9    H6      21.596850   17.978615   20.955015 H          1 MOL1         0.0832
      10    C4      20.041874   17.976669   22.462307 C.3        1 MOL1        -0.1761
      11    H7      19.174170   18.016945   21.791692 H          1 MOL1         0.0832
      12    H8      20.262822   16.910096   22.597168 H          1 MOL1         0.0832
      13    C5      19.658181   18.542899   23.853780 C.3        1 MOL1         0.1218
      14    H9      19.005531   17.796234   24.328982 H          1 MOL1         0.0789
      15    C6      18.858853   19.871870   23.846707 C.3        1 MOL1        -0.1761
      16    H10     17.791347   19.625387   23.915547 H          1 MOL1         0.0832
      17    H11     19.085235   20.430382   24.764469 H          1 MOL1         0.0832
      18    C7      19.041351   20.817508   22.633709 C.3        1 MOL1        -0.1685
      19    H12     18.479022   20.432238   21.772450 H          1 MOL1         0.0832
      20    H13     18.573310   21.779158   22.884394 H          1 MOL1         0.0832
      21    O1      20.817075   18.684593   24.670974 O.3        1 MOL1        -0.5509
      22    H14     20.510392   19.005129   25.543391 H          1 MOL1         0.3779
@<TRIPOS>BOND
    1     1     2    1
    2     1     3    1
    3     1     4    1
    4     4     5    1
    5     4     6    1
    6     4     7    1
    7     7     8    1
    8     7     9    1
    9     7    10    1
   10    10    11    1
   11    10    12    1
   12    10    13    1
   13    13    14    1
   14    13    15    1
   15    15    16    1
   16    15    17    1
   17     1    18    1
   18    15    18    1
   19    18    19    1
   20    18    20    1
   21    13    21    1
   22    21    22    1
@<TRIPOS>SUBSTRUCTURE
       1 MOL1            1 RESIDUE      1      MOL     
@<SCITEGIC>MOL_PROPERTY
VConf Rank
SciTegic.value.IntegerValue
910

@<SCITEGIC>MOL_PROPERTY
Conf_Id
SciTegic.value.IntegerValue
104

@<SCITEGIC>MOL_PROPERTY
Delta U+W
SciTegic.value.DoubleValue
-1.172

@<SCITEGIC>MOL_PROPERTY
U+W
SciTegic.value.DoubleValue
5.252

@<SCITEGIC>MOL_PROPERTY
Grad RMS
SciTegic.value.DoubleValue
0.000000

@<SCITEGIC>MOL_PROPERTY
U
SciTegic.value.DoubleValue
7.482

@<SCITEGIC>MOL_PROPERTY
W
SciTegic.value.DoubleValue
-2.230

@<SCITEGIC>MOL_PROPERTY
W(PB)
SciTegic.value.DoubleValue
-4.220

@<SCITEGIC>MOL_PROPERTY
W(SA)
SciTegic.value.DoubleValue
1.990

@<SCITEGIC>MOL_PROPERTY
Valence
SciTegic.value.DoubleValue
12.309

@<SCITEGIC>MOL_PROPERTY
Coulomb
SciTegic.value.DoubleValue
-7.084

@<SCITEGIC>MOL_PROPERTY
VdW
SciTegic.value.DoubleValue
2.258

@<SCITEGIC>MOL_PROPERTY
VdW6
SciTegic.value.DoubleValue
-9.770

@<SCITEGIC>MOL_PROPERTY
VdW12
SciTegic.value.DoubleValue
12.028

@<SCITEGIC>MOL_PROPERTY
Bond
SciTegic.value.DoubleValue
0.284

@<SCITEGIC>MOL_PROPERTY
Angle
SciTegic.value.DoubleValue
3.491

@<SCITEGIC>MOL_PROPERTY
Pdih
SciTegic.value.DoubleValue
8.535

@<SCITEGIC>MOL_PROPERTY
Idih
SciTegic.value.DoubleValue
0.000

@<SCITEGIC>MOL_PROPERTY
Tether
SciTegic.value.DoubleValue
0.000

@<TRIPOS>MOLECULE
guest-5_confgen4.mol2 : confsearch ligand conformer 911
          22          22           1
SMALL
USER_CHARGES
 
@<TRIPOS>ATOM
       1    C1      20.800868   19.990338   24.083323 C.3        1 MOL1        -0.1685
       2    H1      20.486533   21.040994   24.021686 H          1 MOL1         0.0832
       3    H2      21.400472   19.907642   25.000152 H          1 MOL1         0.0832
       4    C2      21.708171   19.614489   22.889580 C.3        1 MOL1        -0.1685
       5    H3      22.722481   19.986449   23.089755 H          1 MOL1         0.0832
       6    H4      21.810811   18.522521   22.840515 H          1 MOL1         0.0832
       7    C3      21.266668   20.166834   21.510572 C.3        1 MOL1        -0.1685
       8    H5      21.669953   19.509952   20.727513 H          1 MOL1         0.0832
       9    H6      21.753302   21.139232   21.353860 H          1 MOL1         0.0832
      10    C4      19.744110   20.362809   21.276874 C.3        1 MOL1        -0.1761
      11    H7      19.422667   21.291600   21.765728 H          1 MOL1         0.0832
      12    H8      19.585086   20.532505   20.204066 H          1 MOL1         0.0832
      13    C5      18.809195   19.216305   21.725697 C.3        1 MOL1         0.1218
      14    H9      17.873258   19.316153   21.157423 H          1 MOL1         0.0789
      15    C6      18.433937   19.298964   23.222567 C.3        1 MOL1        -0.1761
      16    H10     17.988446   20.282736   23.419524 H          1 MOL1         0.0832
      17    H11     17.636667   18.569504   23.416193 H          1 MOL1         0.0832
      18    C7      19.578512   19.054238   24.236889 C.3        1 MOL1        -0.1685
      19    H12     19.167055   19.187224   25.246705 H          1 MOL1         0.0832
      20    H13     19.903133   18.006121   24.186386 H          1 MOL1         0.0832
      21    O1      19.392310   17.955186   21.436348 O.3        1 MOL1        -0.5509
      22    H14     20.250073   17.975724   21.905504 H          1 MOL1         0.3779
@<TRIPOS>BOND
    1     1     2    1
    2     1     3    1
    3     1     4    1
    4     4     5    1
    5     4     6    1
    6     4     7    1
    7     7     8    1
    8     7     9    1
    9     7    10    1
   10    10    11    1
   11    10    12    1
   12    10    13    1
   13    13    14    1
   14    13    15    1
   15    15    16    1
   16    15    17    1
   17     1    18    1
   18    15    18    1
   19    18    19    1
   20    18    20    1
   21    13    21    1
   22    21    22    1
@<TRIPOS>SUBSTRUCTURE
       1 MOL1            1 RESIDUE      1      MOL     
@<SCITEGIC>MOL_PROPERTY
VConf Rank
SciTegic.value.IntegerValue
911

@<SCITEGIC>MOL_PROPERTY
Conf_Id
SciTegic.value.IntegerValue
99

@<SCITEGIC>MOL_PROPERTY
Delta U+W
SciTegic.value.DoubleValue
-3.852

@<SCITEGIC>MOL_PROPERTY
U+W
SciTegic.value.DoubleValue
2.572

@<SCITEGIC>MOL_PROPERTY
Grad RMS
SciTegic.value.DoubleValue
0.000000

@<SCITEGIC>MOL_PROPERTY
U
SciTegic.value.DoubleValue
3.922

@<SCITEGIC>MOL_PROPERTY
W
SciTegic.value.DoubleValue
-1.350

@<SCITEGIC>MOL_PROPERTY
W(PB)
SciTegic.value.DoubleValue
-3.345

@<SCITEGIC>MOL_PROPERTY
W(SA)
SciTegic.value.DoubleValue
1.995

@<SCITEGIC>MOL_PROPERTY
Valence
SciTegic.value.DoubleValue
12.571

@<SCITEGIC>MOL_PROPERTY
Coulomb
SciTegic.value.DoubleValue
-10.581

@<SCITEGIC>MOL_PROPERTY
VdW
SciTegic.value.DoubleValue
1.932

@<SCITEGIC>MOL_PROPERTY
VdW6
SciTegic.value.DoubleValue
-10.483

@<SCITEGIC>MOL_PROPERTY
VdW12
SciTegic.value.DoubleValue
12.415

@<SCITEGIC>MOL_PROPERTY
Bond
SciTegic.value.DoubleValue
0.268

@<SCITEGIC>MOL_PROPERTY
Angle
SciTegic.value.DoubleValue
3.728

@<SCITEGIC>MOL_PROPERTY
Pdih
SciTegic.value.DoubleValue
8.575

@<SCITEGIC>MOL_PROPERTY
Idih
SciTegic.value.DoubleValue
0.000

@<SCITEGIC>MOL_PROPERTY
Tether
SciTegic.value.DoubleValue
0.000

@<TRIPOS>MOLECULE
guest-5_confgen4.mol2 : confsearch ligand conformer 912
          22          22           1
SMALL
USER_CHARGES
 
@<TRIPOS>ATOM
       1    C1      21.335265   19.759271   23.755497 C.3        1 MOL1        -0.1685
       2    H1      22.371668   19.574425   24.070128 H          1 MOL1         0.0832
       3    H2      20.906736   20.387612   24.547713 H          1 MOL1         0.0832
       4    C2      20.600630   18.387652   23.702370 C.3        1 MOL1        -0.1685
       5    H3      21.319014   17.609147   23.994164 H          1 MOL1         0.0832
       6    H4      19.814891   18.349290   24.468657 H          1 MOL1         0.0832
       7    C3      20.004957   17.989232   22.327894 C.3        1 MOL1        -0.1685
       8    H5      19.694360   16.936687   22.376925 H          1 MOL1         0.0832
       9    H6      20.791696   18.009100   21.563554 H          1 MOL1         0.0832
      10    C4      18.784948   18.822812   21.846694 C.3        1 MOL1        -0.1761
      11    H7      18.713162   18.727217   20.755617 H          1 MOL1         0.0832
      12    H8      17.870766   18.357952   22.239342 H          1 MOL1         0.0832
      13    C5      18.736725   20.327167   22.211040 C.3        1 MOL1         0.1218
      14    H9      17.939450   20.777722   21.602659 H          1 MOL1         0.0789
      15    C6      20.025845   21.140235   21.936752 C.3        1 MOL1        -0.1761
      16    H10     20.100613   21.318753   20.856344 H          1 MOL1         0.0832
      17    H11     19.892483   22.133286   22.386266 H          1 MOL1         0.0832
      18    C7      21.380210   20.557359   22.427419 C.3        1 MOL1        -0.1685
      19    H12     21.824599   19.938300   21.638209 H          1 MOL1         0.0832
      20    H13     22.081471   21.394034   22.549611 H          1 MOL1         0.0832
      21    O1      18.360419   20.475833   23.571016 O.3        1 MOL1        -0.5509
      22    H14     19.095963   20.062816   24.066318 H          1 MOL1         0.3779
@<TRIPOS>BOND
    1     1     2    1
    2     1     3    1
    3     1     4    1
    4     4     5    1
    5     4     6    1
    6     4     7    1
    7     7     8    1
    8     7     9    1
    9     7    10    1
   10    10    11    1
   11    10    12    1
   12    10    13    1
   13    13    14    1
   14    13    15    1
   15    15    16    1
   16    15    17    1
   17     1    18    1
   18    15    18    1
   19    18    19    1
   20    18    20    1
   21    13    21    1
   22    21    22    1
@<TRIPOS>SUBSTRUCTURE
       1 MOL1            1 RESIDUE      1      MOL     
@<SCITEGIC>MOL_PROPERTY
VConf Rank
SciTegic.value.IntegerValue
912

@<SCITEGIC>MOL_PROPERTY
Conf_Id
SciTegic.value.IntegerValue
98

@<SCITEGIC>MOL_PROPERTY
Delta U+W
SciTegic.value.DoubleValue
0.930

@<SCITEGIC>MOL_PROPERTY
U+W
SciTegic.value.DoubleValue
7.353

@<SCITEGIC>MOL_PROPERTY
Grad RMS
SciTegic.value.DoubleValue
0.000000

@<SCITEGIC>MOL_PROPERTY
U
SciTegic.value.DoubleValue
8.455

@<SCITEGIC>MOL_PROPERTY
W
SciTegic.value.DoubleValue
-1.102

@<SCITEGIC>MOL_PROPERTY
W(PB)
SciTegic.value.DoubleValue
-3.101

@<SCITEGIC>MOL_PROPERTY
W(SA)
SciTegic.value.DoubleValue
2.000

@<SCITEGIC>MOL_PROPERTY
Valence
SciTegic.value.DoubleValue
15.601

@<SCITEGIC>MOL_PROPERTY
Coulomb
SciTegic.value.DoubleValue
-10.573

@<SCITEGIC>MOL_PROPERTY
VdW
SciTegic.value.DoubleValue
3.427

@<SCITEGIC>MOL_PROPERTY
VdW6
SciTegic.value.DoubleValue
-11.360

@<SCITEGIC>MOL_PROPERTY
VdW12
SciTegic.value.DoubleValue
14.787

@<SCITEGIC>MOL_PROPERTY
Bond
SciTegic.value.DoubleValue
0.471

@<SCITEGIC>MOL_PROPERTY
Angle
SciTegic.value.DoubleValue
5.445

@<SCITEGIC>MOL_PROPERTY
Pdih
SciTegic.value.DoubleValue
9.685

@<SCITEGIC>MOL_PROPERTY
Idih
SciTegic.value.DoubleValue
0.000

@<SCITEGIC>MOL_PROPERTY
Tether
SciTegic.value.DoubleValue
0.000

@<TRIPOS>MOLECULE
guest-5_confgen4.mol2 : confsearch ligand conformer 913
          22          22           1
SMALL
USER_CHARGES
 
@<TRIPOS>ATOM
       1    C1      20.462529   20.512079   21.314254 C.3        1 MOL1        -0.1685
       2    H1      21.115279   19.688504   20.997358 H          1 MOL1         0.0832
       3    H2      20.557132   21.270615   20.525340 H          1 MOL1         0.0832
       4    C2      20.986295   21.114225   22.642881 C.3        1 MOL1        -0.1685
       5    H3      22.010951   21.467891   22.464342 H          1 MOL1         0.0832
       6    H4      20.402517   22.009588   22.896162 H          1 MOL1         0.0832
       7    C3      21.011447   20.157841   23.867357 C.3        1 MOL1        -0.1685
       8    H5      20.172960   20.383948   24.538796 H          1 MOL1         0.0832
       9    H6      21.912301   20.378592   24.455885 H          1 MOL1         0.0832
      10    C4      21.002759   18.645518   23.520205 C.3        1 MOL1        -0.1761
      11    H7      21.803200   18.437106   22.799452 H          1 MOL1         0.0832
      12    H8      21.281878   18.083163   24.421446 H          1 MOL1         0.0832
      13    C5      19.659865   18.081707   22.970094 C.3        1 MOL1         0.1218
      14    H9      19.887910   17.458279   22.093510 H          1 MOL1         0.0789
      15    C6      18.603861   19.135405   22.551959 C.3        1 MOL1        -0.1761
      16    H10     17.667737   18.620120   22.300542 H          1 MOL1         0.0832
      17    H11     18.357380   19.771725   23.410407 H          1 MOL1         0.0832
      18    C7      18.994770   20.024887   21.345386 C.3        1 MOL1        -0.1685
      19    H12     18.798995   19.470860   20.417194 H          1 MOL1         0.0832
      20    H13     18.325487   20.895661   21.323391 H          1 MOL1         0.0832
      21    O1      19.070494   17.262320   23.973300 O.3        1 MOL1        -0.5509
      22    H14     18.259507   16.875769   23.582075 H          1 MOL1         0.3779
@<TRIPOS>BOND
    1     1     2    1
    2     1     3    1
    3     1     4    1
    4     4     5    1
    5     4     6    1
    6     4     7    1
    7     7     8    1
    8     7     9    1
    9     7    10    1
   10    10    11    1
   11    10    12    1
   12    10    13    1
   13    13    14    1
   14    13    15    1
   15    15    16    1
   16    15    17    1
   17     1    18    1
   18    15    18    1
   19    18    19    1
   20    18    20    1
   21    13    21    1
   22    21    22    1
@<TRIPOS>SUBSTRUCTURE
       1 MOL1            1 RESIDUE      1      MOL     
@<SCITEGIC>MOL_PROPERTY
VConf Rank
SciTegic.value.IntegerValue
913

@<SCITEGIC>MOL_PROPERTY
Conf_Id
SciTegic.value.IntegerValue
141

@<SCITEGIC>MOL_PROPERTY
Delta U+W
SciTegic.value.DoubleValue
0.000

@<SCITEGIC>MOL_PROPERTY
U+W
SciTegic.value.DoubleValue
6.423

@<SCITEGIC>MOL_PROPERTY
Grad RMS
SciTegic.value.DoubleValue
0.000000

@<SCITEGIC>MOL_PROPERTY
U
SciTegic.value.DoubleValue
8.781

@<SCITEGIC>MOL_PROPERTY
W
SciTegic.value.DoubleValue
-2.358

@<SCITEGIC>MOL_PROPERTY
W(PB)
SciTegic.value.DoubleValue
-4.373

@<SCITEGIC>MOL_PROPERTY
W(SA)
SciTegic.value.DoubleValue
2.015

@<SCITEGIC>MOL_PROPERTY
Valence
SciTegic.value.DoubleValue
13.328

@<SCITEGIC>MOL_PROPERTY
Coulomb
SciTegic.value.DoubleValue
-8.387

@<SCITEGIC>MOL_PROPERTY
VdW
SciTegic.value.DoubleValue
3.840

@<SCITEGIC>MOL_PROPERTY
VdW6
SciTegic.value.DoubleValue
-9.744

@<SCITEGIC>MOL_PROPERTY
VdW12
SciTegic.value.DoubleValue
13.584

@<SCITEGIC>MOL_PROPERTY
Bond
SciTegic.value.DoubleValue
0.436

@<SCITEGIC>MOL_PROPERTY
Angle
SciTegic.value.DoubleValue
3.478

@<SCITEGIC>MOL_PROPERTY
Pdih
SciTegic.value.DoubleValue
9.415

@<SCITEGIC>MOL_PROPERTY
Idih
SciTegic.value.DoubleValue
0.000

@<SCITEGIC>MOL_PROPERTY
Tether
SciTegic.value.DoubleValue
0.000

@<TRIPOS>MOLECULE
guest-5_confgen4.mol2 : confsearch ligand conformer 914
          22          22           1
SMALL
USER_CHARGES
 
@<TRIPOS>ATOM
       1    C1      18.746017   19.963415   23.842054 C.3        1 MOL1        -0.1685
       2    H1      18.557290   18.884998   23.931540 H          1 MOL1         0.0832
       3    H2      18.084636   20.449073   24.572545 H          1 MOL1         0.0832
       4    C2      18.352844   20.479452   22.436787 C.3        1 MOL1        -0.1685
       5    H3      17.260024   20.426619   22.337745 H          1 MOL1         0.0832
       6    H4      18.608661   21.544722   22.355325 H          1 MOL1         0.0832
       7    C3      18.982026   19.710540   21.252205 C.3        1 MOL1        -0.1685
       8    H5      18.682615   20.211175   20.321322 H          1 MOL1         0.0832
       9    H6      18.550532   18.701465   21.201807 H          1 MOL1         0.0832
      10    C4      20.526693   19.609801   21.284376 C.3        1 MOL1        -0.1761
      11    H7      20.856964   19.257541   20.298313 H          1 MOL1         0.0832
      12    H8      20.976694   20.601706   21.420836 H          1 MOL1         0.0832
      13    C5      21.038234   18.630154   22.364304 C.3        1 MOL1         0.1218
      14    H9      20.302952   17.819538   22.469686 H          1 MOL1         0.0789
      15    C6      21.260696   19.266925   23.755105 C.3        1 MOL1        -0.1761
      16    H10     21.302720   18.452223   24.489505 H          1 MOL1         0.0832
      17    H11     22.248245   19.746684   23.781347 H          1 MOL1         0.0832
      18    C7      20.206725   20.302474   24.220755 C.3        1 MOL1        -0.1685
      19    H12     20.280098   20.393741   25.313051 H          1 MOL1         0.0832
      20    H13     20.465858   21.293880   23.824934 H          1 MOL1         0.0832
      21    O1      22.274001   18.074828   21.931046 O.3        1 MOL1        -0.5509
      22    H14     22.094533   17.611557   21.086184 H          1 MOL1         0.3779
@<TRIPOS>BOND
    1     1     2    1
    2     1     3    1
    3     1     4    1
    4     4     5    1
    5     4     6    1
    6     4     7    1
    7     7     8    1
    8     7     9    1
    9     7    10    1
   10    10    11    1
   11    10    12    1
   12    10    13    1
   13    13    14    1
   14    13    15    1
   15    15    16    1
   16    15    17    1
   17     1    18    1
   18    15    18    1
   19    18    19    1
   20    18    20    1
   21    13    21    1
   22    21    22    1
@<TRIPOS>SUBSTRUCTURE
       1 MOL1            1 RESIDUE      1      MOL     
@<SCITEGIC>MOL_PROPERTY
VConf Rank
SciTegic.value.IntegerValue
914

@<SCITEGIC>MOL_PROPERTY
Conf_Id
SciTegic.value.IntegerValue
144

@<SCITEGIC>MOL_PROPERTY
Delta U+W
SciTegic.value.DoubleValue
-3.291

@<SCITEGIC>MOL_PROPERTY
U+W
SciTegic.value.DoubleValue
3.132

@<SCITEGIC>MOL_PROPERTY
Grad RMS
SciTegic.value.DoubleValue
0.000000

@<SCITEGIC>MOL_PROPERTY
U
SciTegic.value.DoubleValue
5.411

@<SCITEGIC>MOL_PROPERTY
W
SciTegic.value.DoubleValue
-2.279

@<SCITEGIC>MOL_PROPERTY
W(PB)
SciTegic.value.DoubleValue
-4.300

@<SCITEGIC>MOL_PROPERTY
W(SA)
SciTegic.value.DoubleValue
2.021

@<SCITEGIC>MOL_PROPERTY
Valence
SciTegic.value.DoubleValue
11.909

@<SCITEGIC>MOL_PROPERTY
Coulomb
SciTegic.value.DoubleValue
-8.733

@<SCITEGIC>MOL_PROPERTY
VdW
SciTegic.value.DoubleValue
2.236

@<SCITEGIC>MOL_PROPERTY
VdW6
SciTegic.value.DoubleValue
-8.936

@<SCITEGIC>MOL_PROPERTY
VdW12
SciTegic.value.DoubleValue
11.172

@<SCITEGIC>MOL_PROPERTY
Bond
SciTegic.value.DoubleValue
0.223

@<SCITEGIC>MOL_PROPERTY
Angle
SciTegic.value.DoubleValue
2.457

@<SCITEGIC>MOL_PROPERTY
Pdih
SciTegic.value.DoubleValue
9.228

@<SCITEGIC>MOL_PROPERTY
Idih
SciTegic.value.DoubleValue
0.000

@<SCITEGIC>MOL_PROPERTY
Tether
SciTegic.value.DoubleValue
0.000

@<TRIPOS>MOLECULE
guest-5_confgen4.mol2 : confsearch ligand conformer 915
          22          22           1
SMALL
USER_CHARGES
 
@<TRIPOS>ATOM
       1    C1      19.951396   18.243419   23.788240 C.3        1 MOL1        -0.1685
       2    H1      20.107873   17.609126   24.671460 H          1 MOL1         0.0832
       3    H2      19.378000   17.635506   23.075260 H          1 MOL1         0.0832
       4    C2      21.338528   18.608989   23.210053 C.3        1 MOL1        -0.1685
       5    H3      21.754463   19.459234   23.767598 H          1 MOL1         0.0832
       6    H4      22.029840   17.774368   23.390308 H          1 MOL1         0.0832
       7    C3      21.355830   18.923322   21.694528 C.3        1 MOL1        -0.1685
       8    H5      21.420927   17.980335   21.134658 H          1 MOL1         0.0832
       9    H6      22.282410   19.468704   21.468640 H          1 MOL1         0.0832
      10    C4      20.151272   19.727365   21.146171 C.3        1 MOL1        -0.1761
      11    H7      20.445503   20.154683   20.178030 H          1 MOL1         0.0832
      12    H8      19.326195   19.036942   20.928323 H          1 MOL1         0.0832
      13    C5      19.643314   20.853809   22.073909 C.3        1 MOL1         0.1218
      14    H9      20.492067   21.296599   22.614301 H          1 MOL1         0.0789
      15    C6      18.586630   20.356320   23.086282 C.3        1 MOL1        -0.1761
      16    H10     18.088748   21.227944   23.531835 H          1 MOL1         0.0832
      17    H11     17.804258   19.798871   22.555028 H          1 MOL1         0.0832
      18    C7      19.139672   19.482288   24.236903 C.3        1 MOL1        -0.1685
      19    H12     19.757594   20.102552   24.900506 H          1 MOL1         0.0832
      20    H13     18.292106   19.143146   24.847969 H          1 MOL1         0.0832
      21    O1      19.038029   21.856721   21.268918 O.3        1 MOL1        -0.5509
      22    H14     18.291418   21.425382   20.804506 H          1 MOL1         0.3779
@<TRIPOS>BOND
    1     1     2    1
    2     1     3    1
    3     1     4    1
    4     4     5    1
    5     4     6    1
    6     4     7    1
    7     7     8    1
    8     7     9    1
    9     7    10    1
   10    10    11    1
   11    10    12    1
   12    10    13    1
   13    13    14    1
   14    13    15    1
   15    15    16    1
   16    15    17    1
   17     1    18    1
   18    15    18    1
   19    18    19    1
   20    18    20    1
   21    13    21    1
   22    21    22    1
@<TRIPOS>SUBSTRUCTURE
       1 MOL1            1 RESIDUE      1      MOL     
@<SCITEGIC>MOL_PROPERTY
VConf Rank
SciTegic.value.IntegerValue
915

@<SCITEGIC>MOL_PROPERTY
Conf_Id
SciTegic.value.IntegerValue
76

@<SCITEGIC>MOL_PROPERTY
Delta U+W
SciTegic.value.DoubleValue
-3.175

@<SCITEGIC>MOL_PROPERTY
U+W
SciTegic.value.DoubleValue
3.248

@<SCITEGIC>MOL_PROPERTY
Grad RMS
SciTegic.value.DoubleValue
0.000000

@<SCITEGIC>MOL_PROPERTY
U
SciTegic.value.DoubleValue
5.336

@<SCITEGIC>MOL_PROPERTY
W
SciTegic.value.DoubleValue
-2.088

@<SCITEGIC>MOL_PROPERTY
W(PB)
SciTegic.value.DoubleValue
-4.098

@<SCITEGIC>MOL_PROPERTY
W(SA)
SciTegic.value.DoubleValue
2.010

@<SCITEGIC>MOL_PROPERTY
Valence
SciTegic.value.DoubleValue
12.390

@<SCITEGIC>MOL_PROPERTY
Coulomb
SciTegic.value.DoubleValue
-9.270

@<SCITEGIC>MOL_PROPERTY
VdW
SciTegic.value.DoubleValue
2.216

@<SCITEGIC>MOL_PROPERTY
VdW6
SciTegic.value.DoubleValue
-8.967

@<SCITEGIC>MOL_PROPERTY
VdW12
SciTegic.value.DoubleValue
11.183

@<SCITEGIC>MOL_PROPERTY
Bond
SciTegic.value.DoubleValue
0.218

@<SCITEGIC>MOL_PROPERTY
Angle
SciTegic.value.DoubleValue
2.426

@<SCITEGIC>MOL_PROPERTY
Pdih
SciTegic.value.DoubleValue
9.745

@<SCITEGIC>MOL_PROPERTY
Idih
SciTegic.value.DoubleValue
0.000

@<SCITEGIC>MOL_PROPERTY
Tether
SciTegic.value.DoubleValue
0.000

@<TRIPOS>MOLECULE
guest-5_confgen4.mol2 : confsearch ligand conformer 916
          22          22           1
SMALL
USER_CHARGES
 
@<TRIPOS>ATOM
       1    C1      19.458616   20.889317   23.858894 C.3        1 MOL1        -0.1685
       2    H1      18.426110   21.056624   24.194633 H          1 MOL1         0.0832
       3    H2      20.073260   21.610881   24.414208 H          1 MOL1         0.0832
       4    C2      19.536493   21.221230   22.349442 C.3        1 MOL1        -0.1685
       5    H3      18.605822   20.908669   21.856861 H          1 MOL1         0.0832
       6    H4      19.571913   22.314087   22.243650 H          1 MOL1         0.0832
       7    C3      20.744262   20.605264   21.605516 C.3        1 MOL1        -0.1685
       8    H5      21.640694   20.607804   22.240527 H          1 MOL1         0.0832
       9    H6      20.978382   21.246899   20.745409 H          1 MOL1         0.0832
      10    C4      20.454484   19.181209   21.066837 C.3        1 MOL1        -0.1761
      11    H7      19.516493   19.194921   20.497191 H          1 MOL1         0.0832
      12    H8      21.235384   18.915172   20.342383 H          1 MOL1         0.0832
      13    C5      20.379596   18.054009   22.121783 C.3        1 MOL1         0.1218
      14    H9      19.992685   17.162913   21.606665 H          1 MOL1         0.0789
      15    C6      19.436997   18.333464   23.319238 C.3        1 MOL1        -0.1761
      16    H10     18.423208   18.542271   22.953850 H          1 MOL1         0.0832
      17    H11     19.356674   17.406017   23.900769 H          1 MOL1         0.0832
      18    C7      19.900589   19.465364   24.272707 C.3        1 MOL1        -0.1685
      19    H12     19.501935   19.267216   25.276816 H          1 MOL1         0.0832
      20    H13     20.992624   19.440893   24.383619 H          1 MOL1         0.0832
      21    O1      21.692167   17.760727   22.589935 O.3        1 MOL1        -0.5509
      22    H14     21.593833   17.082854   23.289293 H          1 MOL1         0.3779
@<TRIPOS>BOND
    1     1     2    1
    2     1     3    1
    3     1     4    1
    4     4     5    1
    5     4     6    1
    6     4     7    1
    7     7     8    1
    8     7     9    1
    9     7    10    1
   10    10    11    1
   11    10    12    1
   12    10    13    1
   13    13    14    1
   14    13    15    1
   15    15    16    1
   16    15    17    1
   17     1    18    1
   18    15    18    1
   19    18    19    1
   20    18    20    1
   21    13    21    1
   22    21    22    1
@<TRIPOS>SUBSTRUCTURE
       1 MOL1            1 RESIDUE      1      MOL     
@<SCITEGIC>MOL_PROPERTY
VConf Rank
SciTegic.value.IntegerValue
916

@<SCITEGIC>MOL_PROPERTY
Conf_Id
SciTegic.value.IntegerValue
95

@<SCITEGIC>MOL_PROPERTY
Delta U+W
SciTegic.value.DoubleValue
-2.289

@<SCITEGIC>MOL_PROPERTY
U+W
SciTegic.value.DoubleValue
4.134

@<SCITEGIC>MOL_PROPERTY
Grad RMS
SciTegic.value.DoubleValue
0.000000

@<SCITEGIC>MOL_PROPERTY
U
SciTegic.value.DoubleValue
6.373

@<SCITEGIC>MOL_PROPERTY
W
SciTegic.value.DoubleValue
-2.240

@<SCITEGIC>MOL_PROPERTY
W(PB)
SciTegic.value.DoubleValue
-4.254

@<SCITEGIC>MOL_PROPERTY
W(SA)
SciTegic.value.DoubleValue
2.015

@<SCITEGIC>MOL_PROPERTY
Valence
SciTegic.value.DoubleValue
12.093

@<SCITEGIC>MOL_PROPERTY
Coulomb
SciTegic.value.DoubleValue
-8.058

@<SCITEGIC>MOL_PROPERTY
VdW
SciTegic.value.DoubleValue
2.339

@<SCITEGIC>MOL_PROPERTY
VdW6
SciTegic.value.DoubleValue
-9.683

@<SCITEGIC>MOL_PROPERTY
VdW12
SciTegic.value.DoubleValue
12.022

@<SCITEGIC>MOL_PROPERTY
Bond
SciTegic.value.DoubleValue
0.268

@<SCITEGIC>MOL_PROPERTY
Angle
SciTegic.value.DoubleValue
3.005

@<SCITEGIC>MOL_PROPERTY
Pdih
SciTegic.value.DoubleValue
8.820

@<SCITEGIC>MOL_PROPERTY
Idih
SciTegic.value.DoubleValue
0.000

@<SCITEGIC>MOL_PROPERTY
Tether
SciTegic.value.DoubleValue
0.000

@<TRIPOS>MOLECULE
guest-5_confgen4.mol2 : confsearch ligand conformer 917
          22          22           1
SMALL
USER_CHARGES
 
@<TRIPOS>ATOM
       1    C1      18.966495   18.229239   21.977377 C.3        1 MOL1        -0.1685
       2    H1      18.055241   18.324514   21.371331 H          1 MOL1         0.0832
       3    H2      19.163707   17.151083   22.051388 H          1 MOL1         0.0832
       4    C2      18.667330   18.781987   23.391343 C.3        1 MOL1        -0.1685
       5    H3      17.989796   19.642866   23.311869 H          1 MOL1         0.0832
       6    H4      18.105096   18.016250   23.943012 H          1 MOL1         0.0832
       7    C3      19.913086   19.181651   24.215888 C.3        1 MOL1        -0.1685
       8    H5      20.742239   18.482980   24.039295 H          1 MOL1         0.0832
       9    H6      19.659649   19.091190   25.280788 H          1 MOL1         0.0832
      10    C4      20.356016   20.644128   23.958435 C.3        1 MOL1        -0.1761
      11    H7      19.485910   21.305696   24.059126 H          1 MOL1         0.0832
      12    H8      21.046049   20.947493   24.756437 H          1 MOL1         0.0832
      13    C5      21.033537   20.921934   22.596993 C.3        1 MOL1         0.1218
      14    H9      21.122048   22.013940   22.503241 H          1 MOL1         0.0789
      15    C6      20.249478   20.421816   21.357853 C.3        1 MOL1        -0.1761
      16    H10     19.247251   20.868824   21.343208 H          1 MOL1         0.0832
      17    H11     20.764226   20.810714   20.469809 H          1 MOL1         0.0832
      18    C7      20.148033   18.880384   21.219517 C.3        1 MOL1        -0.1685
      19    H12     20.046441   18.627864   20.155501 H          1 MOL1         0.0832
      20    H13     21.089352   18.414226   21.539256 H          1 MOL1         0.0832
      21    O1      22.346320   20.369236   22.601307 O.3        1 MOL1        -0.5509
      22    H14     22.789037   20.701802   23.408517 H          1 MOL1         0.3779
@<TRIPOS>BOND
    1     1     2    1
    2     1     3    1
    3     1     4    1
    4     4     5    1
    5     4     6    1
    6     4     7    1
    7     7     8    1
    8     7     9    1
    9     7    10    1
   10    10    11    1
   11    10    12    1
   12    10    13    1
   13    13    14    1
   14    13    15    1
   15    15    16    1
   16    15    17    1
   17     1    18    1
   18    15    18    1
   19    18    19    1
   20    18    20    1
   21    13    21    1
   22    21    22    1
@<TRIPOS>SUBSTRUCTURE
       1 MOL1            1 RESIDUE      1      MOL     
@<SCITEGIC>MOL_PROPERTY
VConf Rank
SciTegic.value.IntegerValue
917

@<SCITEGIC>MOL_PROPERTY
Conf_Id
SciTegic.value.IntegerValue
41

@<SCITEGIC>MOL_PROPERTY
Delta U+W
SciTegic.value.DoubleValue
-2.114

@<SCITEGIC>MOL_PROPERTY
U+W
SciTegic.value.DoubleValue
4.310

@<SCITEGIC>MOL_PROPERTY
Grad RMS
SciTegic.value.DoubleValue
0.000000

@<SCITEGIC>MOL_PROPERTY
U
SciTegic.value.DoubleValue
6.598

@<SCITEGIC>MOL_PROPERTY
W
SciTegic.value.DoubleValue
-2.289

@<SCITEGIC>MOL_PROPERTY
W(PB)
SciTegic.value.DoubleValue
-4.294

@<SCITEGIC>MOL_PROPERTY
W(SA)
SciTegic.value.DoubleValue
2.005

@<SCITEGIC>MOL_PROPERTY
Valence
SciTegic.value.DoubleValue
12.082

@<SCITEGIC>MOL_PROPERTY
Coulomb
SciTegic.value.DoubleValue
-7.801

@<SCITEGIC>MOL_PROPERTY
VdW
SciTegic.value.DoubleValue
2.317

@<SCITEGIC>MOL_PROPERTY
VdW6
SciTegic.value.DoubleValue
-9.658

@<SCITEGIC>MOL_PROPERTY
VdW12
SciTegic.value.DoubleValue
11.975

@<SCITEGIC>MOL_PROPERTY
Bond
SciTegic.value.DoubleValue
0.267

@<SCITEGIC>MOL_PROPERTY
Angle
SciTegic.value.DoubleValue
3.051

@<SCITEGIC>MOL_PROPERTY
Pdih
SciTegic.value.DoubleValue
8.764

@<SCITEGIC>MOL_PROPERTY
Idih
SciTegic.value.DoubleValue
0.000

@<SCITEGIC>MOL_PROPERTY
Tether
SciTegic.value.DoubleValue
0.000

@<TRIPOS>MOLECULE
guest-5_confgen4.mol2 : confsearch ligand conformer 918
          22          22           1
SMALL
USER_CHARGES
 
@<TRIPOS>ATOM
       1    C1      19.055530   20.129072   21.546366 C.3        1 MOL1        -0.1685
       2    H1      18.193512   20.467677   20.955756 H          1 MOL1         0.0832
       3    H2      19.942426   20.587267   21.087401 H          1 MOL1         0.0832
       4    C2      19.122693   18.588650   21.446486 C.3        1 MOL1        -0.1685
       5    H3      18.259880   18.148781   21.964802 H          1 MOL1         0.0832
       6    H4      19.019096   18.300692   20.391542 H          1 MOL1         0.0832
       7    C3      20.425249   17.963845   21.992549 C.3        1 MOL1        -0.1685
       8    H5      21.264183   18.238840   21.339513 H          1 MOL1         0.0832
       9    H6      20.336190   16.872141   21.912683 H          1 MOL1         0.0832
      10    C4      20.760589   18.319910   23.466303 C.3        1 MOL1        -0.1761
      11    H7      19.894490   18.117682   24.109137 H          1 MOL1         0.0832
      12    H8      21.546743   17.632231   23.803413 H          1 MOL1         0.0832
      13    C5      21.276332   19.760605   23.716180 C.3        1 MOL1         0.1218
      14    H9      21.759487   19.755638   24.704014 H          1 MOL1         0.0789
      15    C6      20.191580   20.867530   23.772491 C.3        1 MOL1        -0.1761
      16    H10     19.930217   21.032312   24.825866 H          1 MOL1         0.0832
      17    H11     20.629601   21.815269   23.432786 H          1 MOL1         0.0832
      18    C7      18.872540   20.625629   22.997560 C.3        1 MOL1        -0.1685
      19    H12     18.236763   19.923326   23.553412 H          1 MOL1         0.0832
      20    H13     18.316685   21.572881   22.977144 H          1 MOL1         0.0832
      21    O1      22.267612   20.109045   22.753438 O.3        1 MOL1        -0.5509
      22    H14     22.582489   21.006608   22.983965 H          1 MOL1         0.3779
@<TRIPOS>BOND
    1     1     2    1
    2     1     3    1
    3     1     4    1
    4     4     5    1
    5     4     6    1
    6     4     7    1
    7     7     8    1
    8     7     9    1
    9     7    10    1
   10    10    11    1
   11    10    12    1
   12    10    13    1
   13    13    14    1
   14    13    15    1
   15    15    16    1
   16    15    17    1
   17     1    18    1
   18    15    18    1
   19    18    19    1
   20    18    20    1
   21    13    21    1
   22    21    22    1
@<TRIPOS>SUBSTRUCTURE
       1 MOL1            1 RESIDUE      1      MOL     
@<SCITEGIC>MOL_PROPERTY
VConf Rank
SciTegic.value.IntegerValue
918

@<SCITEGIC>MOL_PROPERTY
Conf_Id
SciTegic.value.IntegerValue
104

@<SCITEGIC>MOL_PROPERTY
Delta U+W
SciTegic.value.DoubleValue
-1.172

@<SCITEGIC>MOL_PROPERTY
U+W
SciTegic.value.DoubleValue
5.252

@<SCITEGIC>MOL_PROPERTY
Grad RMS
SciTegic.value.DoubleValue
0.000000

@<SCITEGIC>MOL_PROPERTY
U
SciTegic.value.DoubleValue
7.482

@<SCITEGIC>MOL_PROPERTY
W
SciTegic.value.DoubleValue
-2.230

@<SCITEGIC>MOL_PROPERTY
W(PB)
SciTegic.value.DoubleValue
-4.220

@<SCITEGIC>MOL_PROPERTY
W(SA)
SciTegic.value.DoubleValue
1.990

@<SCITEGIC>MOL_PROPERTY
Valence
SciTegic.value.DoubleValue
12.309

@<SCITEGIC>MOL_PROPERTY
Coulomb
SciTegic.value.DoubleValue
-7.084

@<SCITEGIC>MOL_PROPERTY
VdW
SciTegic.value.DoubleValue
2.258

@<SCITEGIC>MOL_PROPERTY
VdW6
SciTegic.value.DoubleValue
-9.770

@<SCITEGIC>MOL_PROPERTY
VdW12
SciTegic.value.DoubleValue
12.028

@<SCITEGIC>MOL_PROPERTY
Bond
SciTegic.value.DoubleValue
0.284

@<SCITEGIC>MOL_PROPERTY
Angle
SciTegic.value.DoubleValue
3.491

@<SCITEGIC>MOL_PROPERTY
Pdih
SciTegic.value.DoubleValue
8.535

@<SCITEGIC>MOL_PROPERTY
Idih
SciTegic.value.DoubleValue
0.000

@<SCITEGIC>MOL_PROPERTY
Tether
SciTegic.value.DoubleValue
0.000

@<TRIPOS>MOLECULE
guest-5_confgen4.mol2 : confsearch ligand conformer 919
          22          22           1
SMALL
USER_CHARGES
 
@<TRIPOS>ATOM
       1    C1      19.755305   19.311297   24.260922 C.3        1 MOL1        -0.1685
       2    H1      19.086137   18.466175   24.050053 H          1 MOL1         0.0832
       3    H2      19.757989   19.429334   25.353167 H          1 MOL1         0.0832
       4    C2      19.205035   20.618202   23.645547 C.3        1 MOL1        -0.1685
       5    H3      18.415359   21.009134   24.301925 H          1 MOL1         0.0832
       6    H4      19.990493   21.385159   23.658569 H          1 MOL1         0.0832
       7    C3      18.613010   20.491454   22.218972 C.3        1 MOL1        -0.1685
       8    H5      18.678964   21.471580   21.726714 H          1 MOL1         0.0832
       9    H6      17.538223   20.281368   22.306296 H          1 MOL1         0.0832
      10    C4      19.226472   19.411180   21.287374 C.3        1 MOL1        -0.1761
      11    H7      18.816884   18.429380   21.558043 H          1 MOL1         0.0832
      12    H8      18.868564   19.600787   20.267103 H          1 MOL1         0.0832
      13    C5      20.768596   19.311105   21.244710 C.3        1 MOL1         0.1218
      14    H9      21.038336   18.819861   20.298772 H          1 MOL1         0.0789
      15    C6      21.345079   18.437740   22.381886 C.3        1 MOL1        -0.1761
      16    H10     20.875508   17.446529   22.336442 H          1 MOL1         0.0832
      17    H11     22.410535   18.269551   22.177530 H          1 MOL1         0.0832
      18    C7      21.204244   18.994266   23.820370 C.3        1 MOL1        -0.1685
      19    H12     21.619437   18.248313   24.511659 H          1 MOL1         0.0832
      20    H13     21.833157   19.887141   23.937502 H          1 MOL1         0.0832
      21    O1      21.353227   20.603924   21.276274 O.3        1 MOL1        -0.5509
      22    H14     21.003154   21.004043   22.097030 H          1 MOL1         0.3779
@<TRIPOS>BOND
    1     1     2    1
    2     1     3    1
    3     1     4    1
    4     4     5    1
    5     4     6    1
    6     4     7    1
    7     7     8    1
    8     7     9    1
    9     7    10    1
   10    10    11    1
   11    10    12    1
   12    10    13    1
   13    13    14    1
   14    13    15    1
   15    15    16    1
   16    15    17    1
   17     1    18    1
   18    15    18    1
   19    18    19    1
   20    18    20    1
   21    13    21    1
   22    21    22    1
@<TRIPOS>SUBSTRUCTURE
       1 MOL1            1 RESIDUE      1      MOL     
@<SCITEGIC>MOL_PROPERTY
VConf Rank
SciTegic.value.IntegerValue
919

@<SCITEGIC>MOL_PROPERTY
Conf_Id
SciTegic.value.IntegerValue
99

@<SCITEGIC>MOL_PROPERTY
Delta U+W
SciTegic.value.DoubleValue
-3.852

@<SCITEGIC>MOL_PROPERTY
U+W
SciTegic.value.DoubleValue
2.572

@<SCITEGIC>MOL_PROPERTY
Grad RMS
SciTegic.value.DoubleValue
0.000000

@<SCITEGIC>MOL_PROPERTY
U
SciTegic.value.DoubleValue
3.922

@<SCITEGIC>MOL_PROPERTY
W
SciTegic.value.DoubleValue
-1.350

@<SCITEGIC>MOL_PROPERTY
W(PB)
SciTegic.value.DoubleValue
-3.345

@<SCITEGIC>MOL_PROPERTY
W(SA)
SciTegic.value.DoubleValue
1.995

@<SCITEGIC>MOL_PROPERTY
Valence
SciTegic.value.DoubleValue
12.571

@<SCITEGIC>MOL_PROPERTY
Coulomb
SciTegic.value.DoubleValue
-10.581

@<SCITEGIC>MOL_PROPERTY
VdW
SciTegic.value.DoubleValue
1.932

@<SCITEGIC>MOL_PROPERTY
VdW6
SciTegic.value.DoubleValue
-10.483

@<SCITEGIC>MOL_PROPERTY
VdW12
SciTegic.value.DoubleValue
12.415

@<SCITEGIC>MOL_PROPERTY
Bond
SciTegic.value.DoubleValue
0.268

@<SCITEGIC>MOL_PROPERTY
Angle
SciTegic.value.DoubleValue
3.728

@<SCITEGIC>MOL_PROPERTY
Pdih
SciTegic.value.DoubleValue
8.575

@<SCITEGIC>MOL_PROPERTY
Idih
SciTegic.value.DoubleValue
0.000

@<SCITEGIC>MOL_PROPERTY
Tether
SciTegic.value.DoubleValue
0.000

@<TRIPOS>MOLECULE
guest-5_confgen4.mol2 : confsearch ligand conformer 920
          22          22           1
SMALL
USER_CHARGES
 
@<TRIPOS>ATOM
       1    C1      19.654167   19.840860   21.082934 C.3        1 MOL1        -0.1685
       2    H1      19.199612   19.511158   20.138494 H          1 MOL1         0.0832
       3    H2      19.999586   20.865030   20.888466 H          1 MOL1         0.0832
       4    C2      20.868362   18.912192   21.378158 C.3        1 MOL1        -0.1685
       5    H3      20.939447   18.180638   20.561417 H          1 MOL1         0.0832
       6    H4      21.803998   19.484955   21.327350 H          1 MOL1         0.0832
       7    C3      20.813064   18.125892   22.712858 C.3        1 MOL1        -0.1685
       8    H5      21.615873   17.376102   22.706721 H          1 MOL1         0.0832
       9    H6      19.887651   17.538443   22.758507 H          1 MOL1         0.0832
      10    C4      20.962198   18.971223   24.008236 C.3        1 MOL1        -0.1761
      11    H7      20.525235   18.403971   24.840118 H          1 MOL1         0.0832
      12    H8      22.031056   19.056786   24.245339 H          1 MOL1         0.0832
      13    C5      20.365454   20.400156   24.022581 C.3        1 MOL1         0.1218
      14    H9      20.368787   20.737161   25.069095 H          1 MOL1         0.0789
      15    C6      18.911108   20.540492   23.509424 C.3        1 MOL1        -0.1761
      16    H10     18.231697   20.158936   24.282441 H          1 MOL1         0.0832
      17    H11     18.689602   21.613343   23.432461 H          1 MOL1         0.0832
      18    C7      18.539870   19.864763   22.160212 C.3        1 MOL1        -0.1685
      19    H12     18.180090   18.844711   22.343566 H          1 MOL1         0.0832
      20    H13     17.670284   20.394082   21.747457 H          1 MOL1         0.0832
      21    O1      21.212866   21.277303   23.297497 O.3        1 MOL1        -0.5509
      22    H14     21.175863   20.937704   22.380854 H          1 MOL1         0.3779
@<TRIPOS>BOND
    1     1     2    1
    2     1     3    1
    3     1     4    1
    4     4     5    1
    5     4     6    1
    6     4     7    1
    7     7     8    1
    8     7     9    1
    9     7    10    1
   10    10    11    1
   11    10    12    1
   12    10    13    1
   13    13    14    1
   14    13    15    1
   15    15    16    1
   16    15    17    1
   17     1    18    1
   18    15    18    1
   19    18    19    1
   20    18    20    1
   21    13    21    1
   22    21    22    1
@<TRIPOS>SUBSTRUCTURE
       1 MOL1            1 RESIDUE      1      MOL     
@<SCITEGIC>MOL_PROPERTY
VConf Rank
SciTegic.value.IntegerValue
920

@<SCITEGIC>MOL_PROPERTY
Conf_Id
SciTegic.value.IntegerValue
98

@<SCITEGIC>MOL_PROPERTY
Delta U+W
SciTegic.value.DoubleValue
0.930

@<SCITEGIC>MOL_PROPERTY
U+W
SciTegic.value.DoubleValue
7.353

@<SCITEGIC>MOL_PROPERTY
Grad RMS
SciTegic.value.DoubleValue
0.000000

@<SCITEGIC>MOL_PROPERTY
U
SciTegic.value.DoubleValue
8.455

@<SCITEGIC>MOL_PROPERTY
W
SciTegic.value.DoubleValue
-1.102

@<SCITEGIC>MOL_PROPERTY
W(PB)
SciTegic.value.DoubleValue
-3.101

@<SCITEGIC>MOL_PROPERTY
W(SA)
SciTegic.value.DoubleValue
2.000

@<SCITEGIC>MOL_PROPERTY
Valence
SciTegic.value.DoubleValue
15.601

@<SCITEGIC>MOL_PROPERTY
Coulomb
SciTegic.value.DoubleValue
-10.573

@<SCITEGIC>MOL_PROPERTY
VdW
SciTegic.value.DoubleValue
3.427

@<SCITEGIC>MOL_PROPERTY
VdW6
SciTegic.value.DoubleValue
-11.360

@<SCITEGIC>MOL_PROPERTY
VdW12
SciTegic.value.DoubleValue
14.787

@<SCITEGIC>MOL_PROPERTY
Bond
SciTegic.value.DoubleValue
0.471

@<SCITEGIC>MOL_PROPERTY
Angle
SciTegic.value.DoubleValue
5.445

@<SCITEGIC>MOL_PROPERTY
Pdih
SciTegic.value.DoubleValue
9.685

@<SCITEGIC>MOL_PROPERTY
Idih
SciTegic.value.DoubleValue
0.000

@<SCITEGIC>MOL_PROPERTY
Tether
SciTegic.value.DoubleValue
0.000

@<TRIPOS>MOLECULE
guest-5_confgen4.mol2 : confsearch ligand conformer 921
          22          22           1
SMALL
USER_CHARGES
 
@<TRIPOS>ATOM
       1    C1      19.022382   18.649839   23.744109 C.3        1 MOL1        -0.1685
       2    H1      19.872825   18.649833   24.438032 H          1 MOL1         0.0832
       3    H2      18.209386   18.151529   24.289486 H          1 MOL1         0.0832
       4    C2      19.367660   17.803819   22.492234 C.3        1 MOL1        -0.1685
       5    H3      19.598802   16.785861   22.834595 H          1 MOL1         0.0832
       6    H4      18.477420   17.708602   21.855814 H          1 MOL1         0.0832
       7    C3      20.559476   18.306552   21.631143 C.3        1 MOL1        -0.1685
       8    H5      20.186741   18.800117   20.724238 H          1 MOL1         0.0832
       9    H6      21.113694   17.430193   21.268552 H          1 MOL1         0.0832
      10    C4      21.547961   19.251080   22.364952 C.3        1 MOL1        -0.1761
      11    H7      21.867870   18.779269   23.302331 H          1 MOL1         0.0832
      12    H8      22.462834   19.328565   21.762133 H          1 MOL1         0.0832
      13    C5      21.021085   20.684443   22.667840 C.3        1 MOL1         0.1218
      14    H9      21.276375   20.926120   23.709707 H          1 MOL1         0.0789
      15    C6      19.498182   20.899433   22.481283 C.3        1 MOL1        -0.1761
      16    H10     19.272169   21.966624   22.604078 H          1 MOL1         0.0832
      17    H11     19.216274   20.665388   21.447677 H          1 MOL1         0.0832
      18    C7      18.591302   20.107120   23.455764 C.3        1 MOL1        -0.1685
      19    H12     18.542701   20.644640   24.412595 H          1 MOL1         0.0832
      20    H13     17.567609   20.107982   23.057362 H          1 MOL1         0.0832
      21    O1      21.689444   21.601127   21.808676 O.3        1 MOL1        -0.5509
      22    H14     21.383065   22.497664   22.058736 H          1 MOL1         0.3779
@<TRIPOS>BOND
    1     1     2    1
    2     1     3    1
    3     1     4    1
    4     4     5    1
    5     4     6    1
    6     4     7    1
    7     7     8    1
    8     7     9    1
    9     7    10    1
   10    10    11    1
   11    10    12    1
   12    10    13    1
   13    13    14    1
   14    13    15    1
   15    15    16    1
   16    15    17    1
   17     1    18    1
   18    15    18    1
   19    18    19    1
   20    18    20    1
   21    13    21    1
   22    21    22    1
@<TRIPOS>SUBSTRUCTURE
       1 MOL1            1 RESIDUE      1      MOL     
@<SCITEGIC>MOL_PROPERTY
VConf Rank
SciTegic.value.IntegerValue
921

@<SCITEGIC>MOL_PROPERTY
Conf_Id
SciTegic.value.IntegerValue
141

@<SCITEGIC>MOL_PROPERTY
Delta U+W
SciTegic.value.DoubleValue
0.000

@<SCITEGIC>MOL_PROPERTY
U+W
SciTegic.value.DoubleValue
6.423

@<SCITEGIC>MOL_PROPERTY
Grad RMS
SciTegic.value.DoubleValue
0.000000

@<SCITEGIC>MOL_PROPERTY
U
SciTegic.value.DoubleValue
8.781

@<SCITEGIC>MOL_PROPERTY
W
SciTegic.value.DoubleValue
-2.358

@<SCITEGIC>MOL_PROPERTY
W(PB)
SciTegic.value.DoubleValue
-4.373

@<SCITEGIC>MOL_PROPERTY
W(SA)
SciTegic.value.DoubleValue
2.015

@<SCITEGIC>MOL_PROPERTY
Valence
SciTegic.value.DoubleValue
13.328

@<SCITEGIC>MOL_PROPERTY
Coulomb
SciTegic.value.DoubleValue
-8.387

@<SCITEGIC>MOL_PROPERTY
VdW
SciTegic.value.DoubleValue
3.840

@<SCITEGIC>MOL_PROPERTY
VdW6
SciTegic.value.DoubleValue
-9.744

@<SCITEGIC>MOL_PROPERTY
VdW12
SciTegic.value.DoubleValue
13.584

@<SCITEGIC>MOL_PROPERTY
Bond
SciTegic.value.DoubleValue
0.436

@<SCITEGIC>MOL_PROPERTY
Angle
SciTegic.value.DoubleValue
3.478

@<SCITEGIC>MOL_PROPERTY
Pdih
SciTegic.value.DoubleValue
9.415

@<SCITEGIC>MOL_PROPERTY
Idih
SciTegic.value.DoubleValue
0.000

@<SCITEGIC>MOL_PROPERTY
Tether
SciTegic.value.DoubleValue
0.000

@<TRIPOS>MOLECULE
guest-5_confgen4.mol2 : confsearch ligand conformer 922
          22          22           1
SMALL
USER_CHARGES
 
@<TRIPOS>ATOM
       1    C1      18.309634   19.634867   22.155713 C.3        1 MOL1        -0.1685
       2    H1      18.047834   20.069826   23.129817 H          1 MOL1         0.0832
       3    H2      17.373575   19.588221   21.582545 H          1 MOL1         0.0832
       4    C2      18.833195   18.187443   22.318514 C.3        1 MOL1        -0.1685
       5    H3      18.000053   17.548199   22.641155 H          1 MOL1         0.0832
       6    H4      19.144157   17.800310   21.338561 H          1 MOL1         0.0832
       7    C3      19.991919   18.015020   23.327454 C.3        1 MOL1        -0.1685
       8    H5      20.315402   16.965497   23.301277 H          1 MOL1         0.0832
       9    H6      19.617733   18.187830   24.345827 H          1 MOL1         0.0832
      10    C4      21.222954   18.918118   23.070267 C.3        1 MOL1        -0.1761
      11    H7      22.045384   18.543709   23.693895 H          1 MOL1         0.0832
      12    H8      21.561303   18.824608   22.030184 H          1 MOL1         0.0832
      13    C5      20.960178   20.399419   23.422862 C.3        1 MOL1         0.1218
      14    H9      20.259120   20.432610   24.269183 H          1 MOL1         0.0789
      15    C6      20.366724   21.238601   22.268357 C.3        1 MOL1        -0.1761
      16    H10     19.931752   22.145569   22.707741 H          1 MOL1         0.0832
      17    H11     21.178977   21.581442   21.613518 H          1 MOL1         0.0832
      18    C7      19.294288   20.548354   21.388875 C.3        1 MOL1        -0.1685
      19    H12     18.724447   21.331854   20.870962 H          1 MOL1         0.0832
      20    H13     19.786605   19.969825   20.595378 H          1 MOL1         0.0832
      21    O1      22.186671   21.000712   23.819575 O.3        1 MOL1        -0.5509
      22    H14     22.507150   20.500476   24.599111 H          1 MOL1         0.3779
@<TRIPOS>BOND
    1     1     2    1
    2     1     3    1
    3     1     4    1
    4     4     5    1
    5     4     6    1
    6     4     7    1
    7     7     8    1
    8     7     9    1
    9     7    10    1
   10    10    11    1
   11    10    12    1
   12    10    13    1
   13    13    14    1
   14    13    15    1
   15    15    16    1
   16    15    17    1
   17     1    18    1
   18    15    18    1
   19    18    19    1
   20    18    20    1
   21    13    21    1
   22    21    22    1
@<TRIPOS>SUBSTRUCTURE
       1 MOL1            1 RESIDUE      1      MOL     
@<SCITEGIC>MOL_PROPERTY
VConf Rank
SciTegic.value.IntegerValue
922

@<SCITEGIC>MOL_PROPERTY
Conf_Id
SciTegic.value.IntegerValue
144

@<SCITEGIC>MOL_PROPERTY
Delta U+W
SciTegic.value.DoubleValue
-3.291

@<SCITEGIC>MOL_PROPERTY
U+W
SciTegic.value.DoubleValue
3.132

@<SCITEGIC>MOL_PROPERTY
Grad RMS
SciTegic.value.DoubleValue
0.000000

@<SCITEGIC>MOL_PROPERTY
U
SciTegic.value.DoubleValue
5.411

@<SCITEGIC>MOL_PROPERTY
W
SciTegic.value.DoubleValue
-2.279

@<SCITEGIC>MOL_PROPERTY
W(PB)
SciTegic.value.DoubleValue
-4.300

@<SCITEGIC>MOL_PROPERTY
W(SA)
SciTegic.value.DoubleValue
2.021

@<SCITEGIC>MOL_PROPERTY
Valence
SciTegic.value.DoubleValue
11.909

@<SCITEGIC>MOL_PROPERTY
Coulomb
SciTegic.value.DoubleValue
-8.733

@<SCITEGIC>MOL_PROPERTY
VdW
SciTegic.value.DoubleValue
2.236

@<SCITEGIC>MOL_PROPERTY
VdW6
SciTegic.value.DoubleValue
-8.936

@<SCITEGIC>MOL_PROPERTY
VdW12
SciTegic.value.DoubleValue
11.172

@<SCITEGIC>MOL_PROPERTY
Bond
SciTegic.value.DoubleValue
0.223

@<SCITEGIC>MOL_PROPERTY
Angle
SciTegic.value.DoubleValue
2.457

@<SCITEGIC>MOL_PROPERTY
Pdih
SciTegic.value.DoubleValue
9.228

@<SCITEGIC>MOL_PROPERTY
Idih
SciTegic.value.DoubleValue
0.000

@<SCITEGIC>MOL_PROPERTY
Tether
SciTegic.value.DoubleValue
0.000

@<TRIPOS>MOLECULE
guest-5_confgen4.mol2 : confsearch ligand conformer 923
          22          22           1
SMALL
USER_CHARGES
 
@<TRIPOS>ATOM
       1    C1      19.402786   18.475263   21.407061 C.3        1 MOL1        -0.1685
       2    H1      19.215658   17.595591   20.776147 H          1 MOL1         0.0832
       3    H2      18.865150   19.308321   20.934152 H          1 MOL1         0.0832
       4    C2      20.926661   18.739302   21.419844 C.3        1 MOL1        -0.1685
       5    H3      21.404850   18.084983   22.161448 H          1 MOL1         0.0832
       6    H4      21.347420   18.439408   20.450296 H          1 MOL1         0.0832
       7    C3      21.336031   20.208682   21.683015 C.3        1 MOL1        -0.1685
       8    H5      21.292762   20.766558   20.737595 H          1 MOL1         0.0832
       9    H6      22.391387   20.220572   21.988140 H          1 MOL1         0.0832
      10    C4      20.498557   20.977003   22.734898 C.3        1 MOL1        -0.1761
      11    H7      21.082221   21.850283   23.056127 H          1 MOL1         0.0832
      12    H8      19.598545   21.381200   22.253754 H          1 MOL1         0.0832
      13    C5      20.087675   20.147950   23.972412 C.3        1 MOL1         0.1218
      14    H9      20.883820   19.429954   24.215524 H          1 MOL1         0.0789
      15    C6      18.754816   19.393524   23.764308 C.3        1 MOL1        -0.1761
      16    H10     18.394698   19.040190   24.739808 H          1 MOL1         0.0832
      17    H11     17.992637   20.091601   23.394365 H          1 MOL1         0.0832
      18    C7      18.831033   18.175360   22.813528 C.3        1 MOL1        -0.1685
      19    H12     19.424211   17.380880   23.286672 H          1 MOL1         0.0832
      20    H13     17.818356   17.765086   22.699737 H          1 MOL1         0.0832
      21    O1      19.919659   21.035972   25.069407 O.3        1 MOL1        -0.5509
      22    H14     19.207139   21.657944   24.815190 H          1 MOL1         0.3779
@<TRIPOS>BOND
    1     1     2    1
    2     1     3    1
    3     1     4    1
    4     4     5    1
    5     4     6    1
    6     4     7    1
    7     7     8    1
    8     7     9    1
    9     7    10    1
   10    10    11    1
   11    10    12    1
   12    10    13    1
   13    13    14    1
   14    13    15    1
   15    15    16    1
   16    15    17    1
   17     1    18    1
   18    15    18    1
   19    18    19    1
   20    18    20    1
   21    13    21    1
   22    21    22    1
@<TRIPOS>SUBSTRUCTURE
       1 MOL1            1 RESIDUE      1      MOL     
@<SCITEGIC>MOL_PROPERTY
VConf Rank
SciTegic.value.IntegerValue
923

@<SCITEGIC>MOL_PROPERTY
Conf_Id
SciTegic.value.IntegerValue
76

@<SCITEGIC>MOL_PROPERTY
Delta U+W
SciTegic.value.DoubleValue
-3.175

@<SCITEGIC>MOL_PROPERTY
U+W
SciTegic.value.DoubleValue
3.248

@<SCITEGIC>MOL_PROPERTY
Grad RMS
SciTegic.value.DoubleValue
0.000000

@<SCITEGIC>MOL_PROPERTY
U
SciTegic.value.DoubleValue
5.336

@<SCITEGIC>MOL_PROPERTY
W
SciTegic.value.DoubleValue
-2.088

@<SCITEGIC>MOL_PROPERTY
W(PB)
SciTegic.value.DoubleValue
-4.098

@<SCITEGIC>MOL_PROPERTY
W(SA)
SciTegic.value.DoubleValue
2.010

@<SCITEGIC>MOL_PROPERTY
Valence
SciTegic.value.DoubleValue
12.390

@<SCITEGIC>MOL_PROPERTY
Coulomb
SciTegic.value.DoubleValue
-9.270

@<SCITEGIC>MOL_PROPERTY
VdW
SciTegic.value.DoubleValue
2.216

@<SCITEGIC>MOL_PROPERTY
VdW6
SciTegic.value.DoubleValue
-8.967

@<SCITEGIC>MOL_PROPERTY
VdW12
SciTegic.value.DoubleValue
11.183

@<SCITEGIC>MOL_PROPERTY
Bond
SciTegic.value.DoubleValue
0.218

@<SCITEGIC>MOL_PROPERTY
Angle
SciTegic.value.DoubleValue
2.426

@<SCITEGIC>MOL_PROPERTY
Pdih
SciTegic.value.DoubleValue
9.745

@<SCITEGIC>MOL_PROPERTY
Idih
SciTegic.value.DoubleValue
0.000

@<SCITEGIC>MOL_PROPERTY
Tether
SciTegic.value.DoubleValue
0.000

@<TRIPOS>MOLECULE
guest-5_confgen4.mol2 : confsearch ligand conformer 924
          22          22           1
SMALL
USER_CHARGES
 
@<TRIPOS>ATOM
       1    C1      19.499650   21.030653   23.699463 C.3        1 MOL1        -0.1685
       2    H1      19.720056   22.090401   23.512014 H          1 MOL1         0.0832
       3    H2      18.809271   21.016365   24.553856 H          1 MOL1         0.0832
       4    C2      20.816382   20.327187   24.106930 C.3        1 MOL1        -0.1685
       5    H3      21.651904   20.753698   23.535553 H          1 MOL1         0.0832
       6    H4      21.022409   20.574623   25.157221 H          1 MOL1         0.0832
       7    C3      20.814013   18.789288   23.944438 C.3        1 MOL1        -0.1685
       8    H5      19.833715   18.367453   24.205026 H          1 MOL1         0.0832
       9    H6      21.527935   18.369065   24.665562 H          1 MOL1         0.0832
      10    C4      21.250800   18.334847   22.528535 C.3        1 MOL1        -0.1761
      11    H7      22.195967   18.827595   22.267057 H          1 MOL1         0.0832
      12    H8      21.477057   17.260950   22.559636 H          1 MOL1         0.0832
      13    C5      20.233142   18.574351   21.390068 C.3        1 MOL1         0.1218
      14    H9      20.759563   18.371027   20.446332 H          1 MOL1         0.0789
      15    C6      19.673843   20.016322   21.298449 C.3        1 MOL1        -0.1761
      16    H10     20.500702   20.729762   21.188058 H          1 MOL1         0.0832
      17    H11     19.094856   20.088365   20.368734 H          1 MOL1         0.0832
      18    C7      18.758021   20.443947   22.474724 C.3        1 MOL1        -0.1685
      19    H12     18.050328   21.202574   22.114061 H          1 MOL1         0.0832
      20    H13     18.137444   19.597177   22.796138 H          1 MOL1         0.0832
      21    O1      19.164133   17.641348   21.511513 O.3        1 MOL1        -0.5509
      22    H14     18.521032   17.860811   20.806857 H          1 MOL1         0.3779
@<TRIPOS>BOND
    1     1     2    1
    2     1     3    1
    3     1     4    1
    4     4     5    1
    5     4     6    1
    6     4     7    1
    7     7     8    1
    8     7     9    1
    9     7    10    1
   10    10    11    1
   11    10    12    1
   12    10    13    1
   13    13    14    1
   14    13    15    1
   15    15    16    1
   16    15    17    1
   17     1    18    1
   18    15    18    1
   19    18    19    1
   20    18    20    1
   21    13    21    1
   22    21    22    1
@<TRIPOS>SUBSTRUCTURE
       1 MOL1            1 RESIDUE      1      MOL     
@<SCITEGIC>MOL_PROPERTY
VConf Rank
SciTegic.value.IntegerValue
924

@<SCITEGIC>MOL_PROPERTY
Conf_Id
SciTegic.value.IntegerValue
95

@<SCITEGIC>MOL_PROPERTY
Delta U+W
SciTegic.value.DoubleValue
-2.289

@<SCITEGIC>MOL_PROPERTY
U+W
SciTegic.value.DoubleValue
4.134

@<SCITEGIC>MOL_PROPERTY
Grad RMS
SciTegic.value.DoubleValue
0.000000

@<SCITEGIC>MOL_PROPERTY
U
SciTegic.value.DoubleValue
6.373

@<SCITEGIC>MOL_PROPERTY
W
SciTegic.value.DoubleValue
-2.240

@<SCITEGIC>MOL_PROPERTY
W(PB)
SciTegic.value.DoubleValue
-4.254

@<SCITEGIC>MOL_PROPERTY
W(SA)
SciTegic.value.DoubleValue
2.015

@<SCITEGIC>MOL_PROPERTY
Valence
SciTegic.value.DoubleValue
12.093

@<SCITEGIC>MOL_PROPERTY
Coulomb
SciTegic.value.DoubleValue
-8.058

@<SCITEGIC>MOL_PROPERTY
VdW
SciTegic.value.DoubleValue
2.339

@<SCITEGIC>MOL_PROPERTY
VdW6
SciTegic.value.DoubleValue
-9.683

@<SCITEGIC>MOL_PROPERTY
VdW12
SciTegic.value.DoubleValue
12.022

@<SCITEGIC>MOL_PROPERTY
Bond
SciTegic.value.DoubleValue
0.268

@<SCITEGIC>MOL_PROPERTY
Angle
SciTegic.value.DoubleValue
3.005

@<SCITEGIC>MOL_PROPERTY
Pdih
SciTegic.value.DoubleValue
8.820

@<SCITEGIC>MOL_PROPERTY
Idih
SciTegic.value.DoubleValue
0.000

@<SCITEGIC>MOL_PROPERTY
Tether
SciTegic.value.DoubleValue
0.000

@<TRIPOS>MOLECULE
guest-5_confgen4.mol2 : confsearch ligand conformer 925
          22          22           1
SMALL
USER_CHARGES
 
@<TRIPOS>ATOM
       1    C1      20.549643   17.785169   22.717527 C.3        1 MOL1        -0.1685
       2    H1      21.077861   17.224747   21.934158 H          1 MOL1         0.0832
       3    H2      20.399358   17.074983   23.542051 H          1 MOL1         0.0832
       4    C2      19.168501   18.207901   22.162484 C.3        1 MOL1        -0.1685
       5    H3      19.262253   18.453144   21.095926 H          1 MOL1         0.0832
       6    H4      18.503839   17.334288   22.205198 H          1 MOL1         0.0832
       7    C3      18.496756   19.386630   22.904692 C.3        1 MOL1        -0.1685
       8    H5      18.684816   19.329132   23.985500 H          1 MOL1         0.0832
       9    H6      17.409658   19.292707   22.778906 H          1 MOL1         0.0832
      10    C4      18.919909   20.766646   22.340948 C.3        1 MOL1        -0.1761
      11    H7      18.800244   20.760657   21.249830 H          1 MOL1         0.0832
      12    H8      18.216412   21.525829   22.706619 H          1 MOL1         0.0832
      13    C5      20.355523   21.230163   22.678440 C.3        1 MOL1         0.1218
      14    H9      20.552135   22.124113   22.069098 H          1 MOL1         0.0789
      15    C6      21.471049   20.205119   22.354063 C.3        1 MOL1        -0.1761
      16    H10     21.435208   19.936442   21.290570 H          1 MOL1         0.0832
      17    H11     22.432178   20.714066   22.502497 H          1 MOL1         0.0832
      18    C7      21.464164   18.924078   23.228322 C.3        1 MOL1        -0.1685
      19    H12     22.488612   18.532779   23.288401 H          1 MOL1         0.0832
      20    H13     21.190189   19.178305   24.260758 H          1 MOL1         0.0832
      21    O1      20.420098   21.605834   24.050881 O.3        1 MOL1        -0.5509
      22    H14     19.687929   22.237084   24.204623 H          1 MOL1         0.3779
@<TRIPOS>BOND
    1     1     2    1
    2     1     3    1
    3     1     4    1
    4     4     5    1
    5     4     6    1
    6     4     7    1
    7     7     8    1
    8     7     9    1
    9     7    10    1
   10    10    11    1
   11    10    12    1
   12    10    13    1
   13    13    14    1
   14    13    15    1
   15    15    16    1
   16    15    17    1
   17     1    18    1
   18    15    18    1
   19    18    19    1
   20    18    20    1
   21    13    21    1
   22    21    22    1
@<TRIPOS>SUBSTRUCTURE
       1 MOL1            1 RESIDUE      1      MOL     
@<SCITEGIC>MOL_PROPERTY
VConf Rank
SciTegic.value.IntegerValue
925

@<SCITEGIC>MOL_PROPERTY
Conf_Id
SciTegic.value.IntegerValue
41

@<SCITEGIC>MOL_PROPERTY
Delta U+W
SciTegic.value.DoubleValue
-2.114

@<SCITEGIC>MOL_PROPERTY
U+W
SciTegic.value.DoubleValue
4.310

@<SCITEGIC>MOL_PROPERTY
Grad RMS
SciTegic.value.DoubleValue
0.000000

@<SCITEGIC>MOL_PROPERTY
U
SciTegic.value.DoubleValue
6.598

@<SCITEGIC>MOL_PROPERTY
W
SciTegic.value.DoubleValue
-2.289

@<SCITEGIC>MOL_PROPERTY
W(PB)
SciTegic.value.DoubleValue
-4.294

@<SCITEGIC>MOL_PROPERTY
W(SA)
SciTegic.value.DoubleValue
2.005

@<SCITEGIC>MOL_PROPERTY
Valence
SciTegic.value.DoubleValue
12.082

@<SCITEGIC>MOL_PROPERTY
Coulomb
SciTegic.value.DoubleValue
-7.801

@<SCITEGIC>MOL_PROPERTY
VdW
SciTegic.value.DoubleValue
2.317

@<SCITEGIC>MOL_PROPERTY
VdW6
SciTegic.value.DoubleValue
-9.658

@<SCITEGIC>MOL_PROPERTY
VdW12
SciTegic.value.DoubleValue
11.975

@<SCITEGIC>MOL_PROPERTY
Bond
SciTegic.value.DoubleValue
0.267

@<SCITEGIC>MOL_PROPERTY
Angle
SciTegic.value.DoubleValue
3.051

@<SCITEGIC>MOL_PROPERTY
Pdih
SciTegic.value.DoubleValue
8.764

@<SCITEGIC>MOL_PROPERTY
Idih
SciTegic.value.DoubleValue
0.000

@<SCITEGIC>MOL_PROPERTY
Tether
SciTegic.value.DoubleValue
0.000

@<TRIPOS>MOLECULE
guest-5_confgen4.mol2 : confsearch ligand conformer 926
          22          22           1
SMALL
USER_CHARGES
 
@<TRIPOS>ATOM
       1    C1      20.424880   19.575001   24.346090 C.3        1 MOL1        -0.1685
       2    H1      20.860685   19.730486   25.342307 H          1 MOL1         0.0832
       3    H2      19.362574   19.345289   24.507069 H          1 MOL1         0.0832
       4    C2      21.150198   18.377022   23.693291 C.3        1 MOL1        -0.1685
       5    H3      22.193746   18.648780   23.484158 H          1 MOL1         0.0832
       6    H4      21.193099   17.554535   24.420087 H          1 MOL1         0.0832
       7    C3      20.487020   17.847801   22.402810 C.3        1 MOL1        -0.1685
       8    H5      19.524341   17.381605   22.651405 H          1 MOL1         0.0832
       9    H6      21.113486   17.036393   22.008748 H          1 MOL1         0.0832
      10    C4      20.291938   18.903131   21.280577 C.3        1 MOL1        -0.1761
      11    H7      21.237654   19.424350   21.085102 H          1 MOL1         0.0832
      12    H8      20.054287   18.363426   20.354929 H          1 MOL1         0.0832
      13    C5      19.159191   19.936693   21.510066 C.3        1 MOL1         0.1218
      14    H9      18.939190   20.386006   20.530783 H          1 MOL1         0.0789
      15    C6      19.500496   21.115503   22.458252 C.3        1 MOL1        -0.1761
      16    H10     19.825948   21.963122   21.841255 H          1 MOL1         0.0832
      17    H11     18.580637   21.455217   22.952139 H          1 MOL1         0.0832
      18    C7      20.585476   20.881989   23.538618 C.3        1 MOL1        -0.1685
      19    H12     21.582585   20.914986   23.079161 H          1 MOL1         0.0832
      20    H13     20.554068   21.731050   24.234884 H          1 MOL1         0.0832
      21    O1      17.974513   19.285706   21.961367 O.3        1 MOL1        -0.5509
      22    H14     17.287875   19.977540   22.049710 H          1 MOL1         0.3779
@<TRIPOS>BOND
    1     1     2    1
    2     1     3    1
    3     1     4    1
    4     4     5    1
    5     4     6    1
    6     4     7    1
    7     7     8    1
    8     7     9    1
    9     7    10    1
   10    10    11    1
   11    10    12    1
   12    10    13    1
   13    13    14    1
   14    13    15    1
   15    15    16    1
   16    15    17    1
   17     1    18    1
   18    15    18    1
   19    18    19    1
   20    18    20    1
   21    13    21    1
   22    21    22    1
@<TRIPOS>SUBSTRUCTURE
       1 MOL1            1 RESIDUE      1      MOL     
@<SCITEGIC>MOL_PROPERTY
VConf Rank
SciTegic.value.IntegerValue
926

@<SCITEGIC>MOL_PROPERTY
Conf_Id
SciTegic.value.IntegerValue
104

@<SCITEGIC>MOL_PROPERTY
Delta U+W
SciTegic.value.DoubleValue
-1.172

@<SCITEGIC>MOL_PROPERTY
U+W
SciTegic.value.DoubleValue
5.252

@<SCITEGIC>MOL_PROPERTY
Grad RMS
SciTegic.value.DoubleValue
0.000000

@<SCITEGIC>MOL_PROPERTY
U
SciTegic.value.DoubleValue
7.482

@<SCITEGIC>MOL_PROPERTY
W
SciTegic.value.DoubleValue
-2.230

@<SCITEGIC>MOL_PROPERTY
W(PB)
SciTegic.value.DoubleValue
-4.220

@<SCITEGIC>MOL_PROPERTY
W(SA)
SciTegic.value.DoubleValue
1.990

@<SCITEGIC>MOL_PROPERTY
Valence
SciTegic.value.DoubleValue
12.309

@<SCITEGIC>MOL_PROPERTY
Coulomb
SciTegic.value.DoubleValue
-7.084

@<SCITEGIC>MOL_PROPERTY
VdW
SciTegic.value.DoubleValue
2.258

@<SCITEGIC>MOL_PROPERTY
VdW6
SciTegic.value.DoubleValue
-9.770

@<SCITEGIC>MOL_PROPERTY
VdW12
SciTegic.value.DoubleValue
12.028

@<SCITEGIC>MOL_PROPERTY
Bond
SciTegic.value.DoubleValue
0.284

@<SCITEGIC>MOL_PROPERTY
Angle
SciTegic.value.DoubleValue
3.491

@<SCITEGIC>MOL_PROPERTY
Pdih
SciTegic.value.DoubleValue
8.535

@<SCITEGIC>MOL_PROPERTY
Idih
SciTegic.value.DoubleValue
0.000

@<SCITEGIC>MOL_PROPERTY
Tether
SciTegic.value.DoubleValue
0.000

@<TRIPOS>MOLECULE
guest-5_confgen4.mol2 : confsearch ligand conformer 927
          22          22           1
SMALL
USER_CHARGES
 
@<TRIPOS>ATOM
       1    C1      18.553656   19.035133   23.015531 C.3        1 MOL1        -0.1685
       2    H1      18.193644   19.186444   21.988896 H          1 MOL1         0.0832
       3    H2      17.694277   18.653984   23.583978 H          1 MOL1         0.0832
       4    C2      18.984823   20.375873   23.652710 C.3        1 MOL1        -0.1685
       5    H3      18.085030   20.909415   23.988796 H          1 MOL1         0.0832
       6    H4      19.555308   20.176104   24.569212 H          1 MOL1         0.0832
       7    C3      19.783210   21.331663   22.730366 C.3        1 MOL1        -0.1685
       8    H5      20.399080   21.988662   23.359946 H          1 MOL1         0.0832
       9    H6      19.072764   21.997920   22.222136 H          1 MOL1         0.0832
      10    C4      20.679459   20.684463   21.639921 C.3        1 MOL1        -0.1761
      11    H7      20.050189   20.375036   20.795392 H          1 MOL1         0.0832
      12    H8      21.338890   21.463980   21.236801 H          1 MOL1         0.0832
      13    C5      21.557825   19.486976   22.069434 C.3        1 MOL1         0.1218
      14    H9      22.382326   19.410191   21.346121 H          1 MOL1         0.0789
      15    C6      20.799761   18.140934   22.027258 C.3        1 MOL1        -0.1761
      16    H10     20.390675   17.999295   21.018473 H          1 MOL1         0.0832
      17    H11     21.529646   17.332728   22.166235 H          1 MOL1         0.0832
      18    C7      19.661362   17.955808   23.060974 C.3        1 MOL1        -0.1685
      19    H12     19.196997   16.977214   22.878133 H          1 MOL1         0.0832
      20    H13     20.083444   17.897405   24.073354 H          1 MOL1         0.0832
      21    O1      22.098222   19.703862   23.363691 O.3        1 MOL1        -0.5509
      22    H14     21.313120   19.844432   23.929501 H          1 MOL1         0.3779
@<TRIPOS>BOND
    1     1     2    1
    2     1     3    1
    3     1     4    1
    4     4     5    1
    5     4     6    1
    6     4     7    1
    7     7     8    1
    8     7     9    1
    9     7    10    1
   10    10    11    1
   11    10    12    1
   12    10    13    1
   13    13    14    1
   14    13    15    1
   15    15    16    1
   16    15    17    1
   17     1    18    1
   18    15    18    1
   19    18    19    1
   20    18    20    1
   21    13    21    1
   22    21    22    1
@<TRIPOS>SUBSTRUCTURE
       1 MOL1            1 RESIDUE      1      MOL     
@<SCITEGIC>MOL_PROPERTY
VConf Rank
SciTegic.value.IntegerValue
927

@<SCITEGIC>MOL_PROPERTY
Conf_Id
SciTegic.value.IntegerValue
99

@<SCITEGIC>MOL_PROPERTY
Delta U+W
SciTegic.value.DoubleValue
-3.852

@<SCITEGIC>MOL_PROPERTY
U+W
SciTegic.value.DoubleValue
2.572

@<SCITEGIC>MOL_PROPERTY
Grad RMS
SciTegic.value.DoubleValue
0.000000

@<SCITEGIC>MOL_PROPERTY
U
SciTegic.value.DoubleValue
3.922

@<SCITEGIC>MOL_PROPERTY
W
SciTegic.value.DoubleValue
-1.350

@<SCITEGIC>MOL_PROPERTY
W(PB)
SciTegic.value.DoubleValue
-3.345

@<SCITEGIC>MOL_PROPERTY
W(SA)
SciTegic.value.DoubleValue
1.995

@<SCITEGIC>MOL_PROPERTY
Valence
SciTegic.value.DoubleValue
12.571

@<SCITEGIC>MOL_PROPERTY
Coulomb
SciTegic.value.DoubleValue
-10.581

@<SCITEGIC>MOL_PROPERTY
VdW
SciTegic.value.DoubleValue
1.932

@<SCITEGIC>MOL_PROPERTY
VdW6
SciTegic.value.DoubleValue
-10.483

@<SCITEGIC>MOL_PROPERTY
VdW12
SciTegic.value.DoubleValue
12.415

@<SCITEGIC>MOL_PROPERTY
Bond
SciTegic.value.DoubleValue
0.268

@<SCITEGIC>MOL_PROPERTY
Angle
SciTegic.value.DoubleValue
3.728

@<SCITEGIC>MOL_PROPERTY
Pdih
SciTegic.value.DoubleValue
8.575

@<SCITEGIC>MOL_PROPERTY
Idih
SciTegic.value.DoubleValue
0.000

@<SCITEGIC>MOL_PROPERTY
Tether
SciTegic.value.DoubleValue
0.000

@<TRIPOS>MOLECULE
guest-5_confgen4.mol2 : confsearch ligand conformer 928
          22          22           1
SMALL
USER_CHARGES
 
@<TRIPOS>ATOM
       1    C1      21.489607   19.018702   22.007127 C.3        1 MOL1        -0.1685
       2    H1      22.400021   19.150638   21.406267 H          1 MOL1         0.0832
       3    H2      21.534342   17.981319   22.364745 H          1 MOL1         0.0832
       4    C2      20.264427   19.209180   21.065584 C.3        1 MOL1        -0.1685
       5    H3      20.644546   19.423399   20.057164 H          1 MOL1         0.0832
       6    H4      19.713505   18.264433   20.965628 H          1 MOL1         0.0832
       7    C3      19.281992   20.344557   21.450930 C.3        1 MOL1        -0.1685
       8    H5      18.585431   20.498309   20.615533 H          1 MOL1         0.0832
       9    H6      19.826635   21.293274   21.533809 H          1 MOL1         0.0832
      10    C4      18.439286   20.109570   22.735242 C.3        1 MOL1        -0.1761
      11    H7      18.105730   21.085827   23.109947 H          1 MOL1         0.0832
      12    H8      17.520619   19.577300   22.454646 H          1 MOL1         0.0832
      13    C5      19.090001   19.331741   23.905589 C.3        1 MOL1         0.1218
      14    H9      18.438553   19.467701   24.780749 H          1 MOL1         0.0789
      15    C6      20.509083   19.787375   24.326003 C.3        1 MOL1        -0.1761
      16    H10     20.420153   20.725429   24.888930 H          1 MOL1         0.0832
      17    H11     20.892728   19.052279   25.046036 H          1 MOL1         0.0832
      18    C7      21.575745   19.987792   23.213858 C.3        1 MOL1        -0.1685
      19    H12     21.549523   21.025297   22.858242 H          1 MOL1         0.0832
      20    H13     22.566699   19.879199   23.675316 H          1 MOL1         0.0832
      21    O1      19.104549   17.944961   23.605806 O.3        1 MOL1        -0.5509
      22    H14     19.692695   17.877618   22.827037 H          1 MOL1         0.3779
@<TRIPOS>BOND
    1     1     2    1
    2     1     3    1
    3     1     4    1
    4     4     5    1
    5     4     6    1
    6     4     7    1
    7     7     8    1
    8     7     9    1
    9     7    10    1
   10    10    11    1
   11    10    12    1
   12    10    13    1
   13    13    14    1
   14    13    15    1
   15    15    16    1
   16    15    17    1
   17     1    18    1
   18    15    18    1
   19    18    19    1
   20    18    20    1
   21    13    21    1
   22    21    22    1
@<TRIPOS>SUBSTRUCTURE
       1 MOL1            1 RESIDUE      1      MOL     
@<SCITEGIC>MOL_PROPERTY
VConf Rank
SciTegic.value.IntegerValue
928

@<SCITEGIC>MOL_PROPERTY
Conf_Id
SciTegic.value.IntegerValue
98

@<SCITEGIC>MOL_PROPERTY
Delta U+W
SciTegic.value.DoubleValue
0.930

@<SCITEGIC>MOL_PROPERTY
U+W
SciTegic.value.DoubleValue
7.353

@<SCITEGIC>MOL_PROPERTY
Grad RMS
SciTegic.value.DoubleValue
0.000000

@<SCITEGIC>MOL_PROPERTY
U
SciTegic.value.DoubleValue
8.455

@<SCITEGIC>MOL_PROPERTY
W
SciTegic.value.DoubleValue
-1.102

@<SCITEGIC>MOL_PROPERTY
W(PB)
SciTegic.value.DoubleValue
-3.101

@<SCITEGIC>MOL_PROPERTY
W(SA)
SciTegic.value.DoubleValue
2.000

@<SCITEGIC>MOL_PROPERTY
Valence
SciTegic.value.DoubleValue
15.601

@<SCITEGIC>MOL_PROPERTY
Coulomb
SciTegic.value.DoubleValue
-10.573

@<SCITEGIC>MOL_PROPERTY
VdW
SciTegic.value.DoubleValue
3.427

@<SCITEGIC>MOL_PROPERTY
VdW6
SciTegic.value.DoubleValue
-11.360

@<SCITEGIC>MOL_PROPERTY
VdW12
SciTegic.value.DoubleValue
14.787

@<SCITEGIC>MOL_PROPERTY
Bond
SciTegic.value.DoubleValue
0.471

@<SCITEGIC>MOL_PROPERTY
Angle
SciTegic.value.DoubleValue
5.445

@<SCITEGIC>MOL_PROPERTY
Pdih
SciTegic.value.DoubleValue
9.685

@<SCITEGIC>MOL_PROPERTY
Idih
SciTegic.value.DoubleValue
0.000

@<SCITEGIC>MOL_PROPERTY
Tether
SciTegic.value.DoubleValue
0.000

@<TRIPOS>MOLECULE
guest-5_confgen4.mol2 : confsearch ligand conformer 929
          22          22           1
SMALL
USER_CHARGES
 
@<TRIPOS>ATOM
       1    C1      20.850166   20.523945   23.785425 C.3        1 MOL1        -0.1685
       2    H1      19.877281   20.964230   24.039246 H          1 MOL1         0.0832
       3    H2      21.566242   21.002247   24.467463 H          1 MOL1         0.0832
       4    C2      21.230425   20.897131   22.329989 C.3        1 MOL1        -0.1685
       5    H3      21.264087   21.993431   22.267806 H          1 MOL1         0.0832
       6    H4      22.252719   20.555684   22.117971 H          1 MOL1         0.0832
       7    C3      20.277866   20.378818   21.217052 C.3        1 MOL1        -0.1685
       8    H5      20.727454   19.516076   20.708563 H          1 MOL1         0.0832
       9    H6      20.201215   21.154628   20.443180 H          1 MOL1         0.0832
      10    C4      18.848280   20.010352   21.694783 C.3        1 MOL1        -0.1761
      11    H7      18.428349   20.853432   22.257367 H          1 MOL1         0.0832
      12    H8      18.203703   19.912695   20.810830 H          1 MOL1         0.0832
      13    C5      18.729875   18.715090   22.550439 C.3        1 MOL1         0.1218
      14    H9      18.090804   18.938638   23.416858 H          1 MOL1         0.0789
      15    C6      20.063464   18.124826   23.073303 C.3        1 MOL1        -0.1761
      16    H10     19.860791   17.157970   23.552020 H          1 MOL1         0.0832
      17    H11     20.720865   17.891743   22.227085 H          1 MOL1         0.0832
      18    C7      20.826564   19.007977   24.091895 C.3        1 MOL1        -0.1685
      19    H12     20.382587   18.867496   25.086865 H          1 MOL1         0.0832
      20    H13     21.858635   18.639538   24.167746 H          1 MOL1         0.0832
      21    O1      18.098845   17.711263   21.763478 O.3        1 MOL1        -0.5509
      22    H14     17.985037   16.928595   22.341973 H          1 MOL1         0.3779
@<TRIPOS>BOND
    1     1     2    1
    2     1     3    1
    3     1     4    1
    4     4     5    1
    5     4     6    1
    6     4     7    1
    7     7     8    1
    8     7     9    1
    9     7    10    1
   10    10    11    1
   11    10    12    1
   12    10    13    1
   13    13    14    1
   14    13    15    1
   15    15    16    1
   16    15    17    1
   17     1    18    1
   18    15    18    1
   19    18    19    1
   20    18    20    1
   21    13    21    1
   22    21    22    1
@<TRIPOS>SUBSTRUCTURE
       1 MOL1            1 RESIDUE      1      MOL     
@<SCITEGIC>MOL_PROPERTY
VConf Rank
SciTegic.value.IntegerValue
929

@<SCITEGIC>MOL_PROPERTY
Conf_Id
SciTegic.value.IntegerValue
141

@<SCITEGIC>MOL_PROPERTY
Delta U+W
SciTegic.value.DoubleValue
0.000

@<SCITEGIC>MOL_PROPERTY
U+W
SciTegic.value.DoubleValue
6.423

@<SCITEGIC>MOL_PROPERTY
Grad RMS
SciTegic.value.DoubleValue
0.000000

@<SCITEGIC>MOL_PROPERTY
U
SciTegic.value.DoubleValue
8.781

@<SCITEGIC>MOL_PROPERTY
W
SciTegic.value.DoubleValue
-2.358

@<SCITEGIC>MOL_PROPERTY
W(PB)
SciTegic.value.DoubleValue
-4.373

@<SCITEGIC>MOL_PROPERTY
W(SA)
SciTegic.value.DoubleValue
2.015

@<SCITEGIC>MOL_PROPERTY
Valence
SciTegic.value.DoubleValue
13.328

@<SCITEGIC>MOL_PROPERTY
Coulomb
SciTegic.value.DoubleValue
-8.387

@<SCITEGIC>MOL_PROPERTY
VdW
SciTegic.value.DoubleValue
3.840

@<SCITEGIC>MOL_PROPERTY
VdW6
SciTegic.value.DoubleValue
-9.744

@<SCITEGIC>MOL_PROPERTY
VdW12
SciTegic.value.DoubleValue
13.584

@<SCITEGIC>MOL_PROPERTY
Bond
SciTegic.value.DoubleValue
0.436

@<SCITEGIC>MOL_PROPERTY
Angle
SciTegic.value.DoubleValue
3.478

@<SCITEGIC>MOL_PROPERTY
Pdih
SciTegic.value.DoubleValue
9.415

@<SCITEGIC>MOL_PROPERTY
Idih
SciTegic.value.DoubleValue
0.000

@<SCITEGIC>MOL_PROPERTY
Tether
SciTegic.value.DoubleValue
0.000

@<TRIPOS>MOLECULE
guest-5_confgen4.mol2 : confsearch ligand conformer 930
          22          22           1
SMALL
USER_CHARGES
 
@<TRIPOS>ATOM
       1    C1      19.408939   20.809485   23.794483 C.3        1 MOL1        -0.1685
       2    H1      18.976352   19.998232   24.395603 H          1 MOL1         0.0832
       3    H2      19.219230   21.736005   24.353478 H          1 MOL1         0.0832
       4    C2      18.690947   20.929764   22.428586 C.3        1 MOL1        -0.1685
       5    H3      17.667701   21.290121   22.601689 H          1 MOL1         0.0832
       6    H4      19.182543   21.705610   21.825862 H          1 MOL1         0.0832
       7    C3      18.609106   19.621203   21.609256 C.3        1 MOL1        -0.1685
       8    H5      18.142556   19.851616   20.641750 H          1 MOL1         0.0832
       9    H6      17.928747   18.918994   22.110228 H          1 MOL1         0.0832
      10    C4      19.967965   18.926054   21.349539 C.3        1 MOL1        -0.1761
      11    H7      19.806912   18.159314   20.580348 H          1 MOL1         0.0832
      12    H8      20.691312   19.635414   20.926957 H          1 MOL1         0.0832
      13    C5      20.545487   18.253506   22.615151 C.3        1 MOL1         0.1218
      14    H9      19.705949   17.894966   23.227907 H          1 MOL1         0.0789
      15    C6      21.423853   19.177565   23.489156 C.3        1 MOL1        -0.1761
      16    H10     21.503447   18.716708   24.482195 H          1 MOL1         0.0832
      17    H11     22.444577   19.197976   23.084415 H          1 MOL1         0.0832
      18    C7      20.940028   20.639717   23.656691 C.3        1 MOL1        -0.1685
      19    H12     21.427040   21.058355   24.547975 H          1 MOL1         0.0832
      20    H13     21.300100   21.244778   22.813507 H          1 MOL1         0.0832
      21    O1      21.335183   17.137848   22.221572 O.3        1 MOL1        -0.5509
      22    H14     20.741086   16.529280   21.734424 H          1 MOL1         0.3779
@<TRIPOS>BOND
    1     1     2    1
    2     1     3    1
    3     1     4    1
    4     4     5    1
    5     4     6    1
    6     4     7    1
    7     7     8    1
    8     7     9    1
    9     7    10    1
   10    10    11    1
   11    10    12    1
   12    10    13    1
   13    13    14    1
   14    13    15    1
   15    15    16    1
   16    15    17    1
   17     1    18    1
   18    15    18    1
   19    18    19    1
   20    18    20    1
   21    13    21    1
   22    21    22    1
@<TRIPOS>SUBSTRUCTURE
       1 MOL1            1 RESIDUE      1      MOL     
@<SCITEGIC>MOL_PROPERTY
VConf Rank
SciTegic.value.IntegerValue
930

@<SCITEGIC>MOL_PROPERTY
Conf_Id
SciTegic.value.IntegerValue
144

@<SCITEGIC>MOL_PROPERTY
Delta U+W
SciTegic.value.DoubleValue
-3.291

@<SCITEGIC>MOL_PROPERTY
U+W
SciTegic.value.DoubleValue
3.132

@<SCITEGIC>MOL_PROPERTY
Grad RMS
SciTegic.value.DoubleValue
0.000000

@<SCITEGIC>MOL_PROPERTY
U
SciTegic.value.DoubleValue
5.411

@<SCITEGIC>MOL_PROPERTY
W
SciTegic.value.DoubleValue
-2.279

@<SCITEGIC>MOL_PROPERTY
W(PB)
SciTegic.value.DoubleValue
-4.300

@<SCITEGIC>MOL_PROPERTY
W(SA)
SciTegic.value.DoubleValue
2.021

@<SCITEGIC>MOL_PROPERTY
Valence
SciTegic.value.DoubleValue
11.909

@<SCITEGIC>MOL_PROPERTY
Coulomb
SciTegic.value.DoubleValue
-8.733

@<SCITEGIC>MOL_PROPERTY
VdW
SciTegic.value.DoubleValue
2.236

@<SCITEGIC>MOL_PROPERTY
VdW6
SciTegic.value.DoubleValue
-8.936

@<SCITEGIC>MOL_PROPERTY
VdW12
SciTegic.value.DoubleValue
11.172

@<SCITEGIC>MOL_PROPERTY
Bond
SciTegic.value.DoubleValue
0.223

@<SCITEGIC>MOL_PROPERTY
Angle
SciTegic.value.DoubleValue
2.457

@<SCITEGIC>MOL_PROPERTY
Pdih
SciTegic.value.DoubleValue
9.228

@<SCITEGIC>MOL_PROPERTY
Idih
SciTegic.value.DoubleValue
0.000

@<SCITEGIC>MOL_PROPERTY
Tether
SciTegic.value.DoubleValue
0.000

@<TRIPOS>MOLECULE
guest-5_confgen4.mol2 : confsearch ligand conformer 931
          22          22           1
SMALL
USER_CHARGES
 
@<TRIPOS>ATOM
       1    C1      18.780002   18.557483   23.469972 C.3        1 MOL1        -0.1685
       2    H1      18.123728   17.732417   23.778941 H          1 MOL1         0.0832
       3    H2      18.602501   19.371429   24.185980 H          1 MOL1         0.0832
       4    C2      18.372621   18.982897   22.039889 C.3        1 MOL1        -0.1685
       5    H3      18.845357   18.311519   21.310132 H          1 MOL1         0.0832
       6    H4      17.291151   18.832055   21.918772 H          1 MOL1         0.0832
       7    C3      18.692411   20.453079   21.676268 C.3        1 MOL1        -0.1685
       8    H5      17.884691   21.097393   22.049583 H          1 MOL1         0.0832
       9    H6      18.667949   20.548124   20.582017 H          1 MOL1         0.0832
      10    C4      20.037432   21.013273   22.200904 C.3        1 MOL1        -0.1761
      11    H7      20.281890   21.907047   21.611091 H          1 MOL1         0.0832
      12    H8      19.903819   21.364648   23.232202 H          1 MOL1         0.0832
      13    C5      21.221055   20.021364   22.148499 C.3        1 MOL1         0.1218
      14    H9      21.119357   19.372969   21.266619 H          1 MOL1         0.0789
      15    C6      21.322438   19.151993   23.422428 C.3        1 MOL1        -0.1761
      16    H10     22.305677   18.662958   23.437115 H          1 MOL1         0.0832
      17    H11     21.291481   19.797457   24.309842 H          1 MOL1         0.0832
      18    C7      20.240801   18.053851   23.556074 C.3        1 MOL1        -0.1685
      19    H12     20.407037   17.284062   22.790101 H          1 MOL1         0.0832
      20    H13     20.381131   17.549838   24.522027 H          1 MOL1         0.0832
      21    O1      22.424938   20.768040   22.032945 O.3        1 MOL1        -0.5509
      22    H14     22.478605   21.331730   22.832028 H          1 MOL1         0.3779
@<TRIPOS>BOND
    1     1     2    1
    2     1     3    1
    3     1     4    1
    4     4     5    1
    5     4     6    1
    6     4     7    1
    7     7     8    1
    8     7     9    1
    9     7    10    1
   10    10    11    1
   11    10    12    1
   12    10    13    1
   13    13    14    1
   14    13    15    1
   15    15    16    1
   16    15    17    1
   17     1    18    1
   18    15    18    1
   19    18    19    1
   20    18    20    1
   21    13    21    1
   22    21    22    1
@<TRIPOS>SUBSTRUCTURE
       1 MOL1            1 RESIDUE      1      MOL     
@<SCITEGIC>MOL_PROPERTY
VConf Rank
SciTegic.value.IntegerValue
931

@<SCITEGIC>MOL_PROPERTY
Conf_Id
SciTegic.value.IntegerValue
76

@<SCITEGIC>MOL_PROPERTY
Delta U+W
SciTegic.value.DoubleValue
-3.175

@<SCITEGIC>MOL_PROPERTY
U+W
SciTegic.value.DoubleValue
3.248

@<SCITEGIC>MOL_PROPERTY
Grad RMS
SciTegic.value.DoubleValue
0.000000

@<SCITEGIC>MOL_PROPERTY
U
SciTegic.value.DoubleValue
5.336

@<SCITEGIC>MOL_PROPERTY
W
SciTegic.value.DoubleValue
-2.088

@<SCITEGIC>MOL_PROPERTY
W(PB)
SciTegic.value.DoubleValue
-4.098

@<SCITEGIC>MOL_PROPERTY
W(SA)
SciTegic.value.DoubleValue
2.010

@<SCITEGIC>MOL_PROPERTY
Valence
SciTegic.value.DoubleValue
12.390

@<SCITEGIC>MOL_PROPERTY
Coulomb
SciTegic.value.DoubleValue
-9.270

@<SCITEGIC>MOL_PROPERTY
VdW
SciTegic.value.DoubleValue
2.216

@<SCITEGIC>MOL_PROPERTY
VdW6
SciTegic.value.DoubleValue
-8.967

@<SCITEGIC>MOL_PROPERTY
VdW12
SciTegic.value.DoubleValue
11.183

@<SCITEGIC>MOL_PROPERTY
Bond
SciTegic.value.DoubleValue
0.218

@<SCITEGIC>MOL_PROPERTY
Angle
SciTegic.value.DoubleValue
2.426

@<SCITEGIC>MOL_PROPERTY
Pdih
SciTegic.value.DoubleValue
9.745

@<SCITEGIC>MOL_PROPERTY
Idih
SciTegic.value.DoubleValue
0.000

@<SCITEGIC>MOL_PROPERTY
Tether
SciTegic.value.DoubleValue
0.000

@<TRIPOS>MOLECULE
guest-5_confgen4.mol2 : confsearch ligand conformer 932
          22          22           1
SMALL
USER_CHARGES
 
@<TRIPOS>ATOM
       1    C1      21.514875   19.402827   21.503688 C.3        1 MOL1        -0.1685
       2    H1      21.815332   20.117062   20.724987 H          1 MOL1         0.0832
       3    H2      22.283981   18.618425   21.501499 H          1 MOL1         0.0832
       4    C2      20.160503   18.778280   21.091023 C.3        1 MOL1        -0.1685
       5    H3      19.541991   19.538713   20.595377 H          1 MOL1         0.0832
       6    H4      20.357716   18.015617   20.325364 H          1 MOL1         0.0832
       7    C3      19.357781   18.134884   22.245675 C.3        1 MOL1        -0.1685
       8    H5      20.026724   17.634472   22.959076 H          1 MOL1         0.0832
       9    H6      18.721181   17.347106   21.820895 H          1 MOL1         0.0832
      10    C4      18.435250   19.146711   22.971776 C.3        1 MOL1        -0.1761
      11    H7      17.830775   19.681756   22.228239 H          1 MOL1         0.0832
      12    H8      17.718323   18.587745   23.587395 H          1 MOL1         0.0832
      13    C5      19.137601   20.181568   23.880000 C.3        1 MOL1         0.1218
      14    H9      18.375954   20.921539   24.165367 H          1 MOL1         0.0789
      15    C6      20.301838   20.958757   23.215909 C.3        1 MOL1        -0.1761
      16    H10     19.941494   21.468942   22.313279 H          1 MOL1         0.0832
      17    H11     20.603415   21.756924   23.906393 H          1 MOL1         0.0832
      18    C7      21.554758   20.108691   22.880056 C.3        1 MOL1        -0.1685
      19    H12     22.439229   20.759658   22.899458 H          1 MOL1         0.0832
      20    H13     21.725847   19.362539   23.667093 H          1 MOL1         0.0832
      21    O1      19.593196   19.534827   25.064138 O.3        1 MOL1        -0.5509
      22    H14     20.074456   20.210767   25.583539 H          1 MOL1         0.3779
@<TRIPOS>BOND
    1     1     2    1
    2     1     3    1
    3     1     4    1
    4     4     5    1
    5     4     6    1
    6     4     7    1
    7     7     8    1
    8     7     9    1
    9     7    10    1
   10    10    11    1
   11    10    12    1
   12    10    13    1
   13    13    14    1
   14    13    15    1
   15    15    16    1
   16    15    17    1
   17     1    18    1
   18    15    18    1
   19    18    19    1
   20    18    20    1
   21    13    21    1
   22    21    22    1
@<TRIPOS>SUBSTRUCTURE
       1 MOL1            1 RESIDUE      1      MOL     
@<SCITEGIC>MOL_PROPERTY
VConf Rank
SciTegic.value.IntegerValue
932

@<SCITEGIC>MOL_PROPERTY
Conf_Id
SciTegic.value.IntegerValue
95

@<SCITEGIC>MOL_PROPERTY
Delta U+W
SciTegic.value.DoubleValue
-2.289

@<SCITEGIC>MOL_PROPERTY
U+W
SciTegic.value.DoubleValue
4.134

@<SCITEGIC>MOL_PROPERTY
Grad RMS
SciTegic.value.DoubleValue
0.000000

@<SCITEGIC>MOL_PROPERTY
U
SciTegic.value.DoubleValue
6.373

@<SCITEGIC>MOL_PROPERTY
W
SciTegic.value.DoubleValue
-2.240

@<SCITEGIC>MOL_PROPERTY
W(PB)
SciTegic.value.DoubleValue
-4.254

@<SCITEGIC>MOL_PROPERTY
W(SA)
SciTegic.value.DoubleValue
2.015

@<SCITEGIC>MOL_PROPERTY
Valence
SciTegic.value.DoubleValue
12.093

@<SCITEGIC>MOL_PROPERTY
Coulomb
SciTegic.value.DoubleValue
-8.058

@<SCITEGIC>MOL_PROPERTY
VdW
SciTegic.value.DoubleValue
2.339

@<SCITEGIC>MOL_PROPERTY
VdW6
SciTegic.value.DoubleValue
-9.683

@<SCITEGIC>MOL_PROPERTY
VdW12
SciTegic.value.DoubleValue
12.022

@<SCITEGIC>MOL_PROPERTY
Bond
SciTegic.value.DoubleValue
0.268

@<SCITEGIC>MOL_PROPERTY
Angle
SciTegic.value.DoubleValue
3.005

@<SCITEGIC>MOL_PROPERTY
Pdih
SciTegic.value.DoubleValue
8.820

@<SCITEGIC>MOL_PROPERTY
Idih
SciTegic.value.DoubleValue
0.000

@<SCITEGIC>MOL_PROPERTY
Tether
SciTegic.value.DoubleValue
0.000

@<TRIPOS>MOLECULE
guest-5_confgen4.mol2 : confsearch ligand conformer 933
          22          22           1
SMALL
USER_CHARGES
 
@<TRIPOS>ATOM
       1    C1      19.050860   19.209764   24.284814 C.3        1 MOL1        -0.1685
       2    H1      17.966746   19.291710   24.442091 H          1 MOL1         0.0832
       3    H2      19.456651   18.794480   25.217370 H          1 MOL1         0.0832
       4    C2      19.619486   20.634457   24.081726 C.3        1 MOL1        -0.1685
       5    H3      18.894658   21.241442   23.522554 H          1 MOL1         0.0832
       6    H4      19.701709   21.110751   25.068227 H          1 MOL1         0.0832
       7    C3      20.995027   20.696911   23.377808 C.3        1 MOL1        -0.1685
       8    H5      21.638063   19.865283   23.696741 H          1 MOL1         0.0832
       9    H6      21.501758   21.615888   23.702049 H          1 MOL1         0.0832
      10    C4      20.874404   20.743816   21.833606 C.3        1 MOL1        -0.1761
      11    H7      20.159786   21.528362   21.553066 H          1 MOL1         0.0832
      12    H8      21.837514   21.064674   21.415930 H          1 MOL1         0.0832
      13    C5      20.458370   19.425547   21.141639 C.3        1 MOL1         0.1218
      14    H9      20.250369   19.670712   20.090102 H          1 MOL1         0.0789
      15    C6      19.182901   18.756847   21.712911 C.3        1 MOL1        -0.1761
      16    H10     18.338433   19.455953   21.661791 H          1 MOL1         0.0832
      17    H11     18.925068   17.925807   21.043789 H          1 MOL1         0.0832
      18    C7      19.321700   18.192385   23.150812 C.3        1 MOL1        -0.1685
      19    H12     18.618082   17.357750   23.271323 H          1 MOL1         0.0832
      20    H13     20.318745   17.752288   23.284354 H          1 MOL1         0.0832
      21    O1      21.548601   18.509529   21.176269 O.3        1 MOL1        -0.5509
      22    H14     22.327405   18.985460   20.822518 H          1 MOL1         0.3779
@<TRIPOS>BOND
    1     1     2    1
    2     1     3    1
    3     1     4    1
    4     4     5    1
    5     4     6    1
    6     4     7    1
    7     7     8    1
    8     7     9    1
    9     7    10    1
   10    10    11    1
   11    10    12    1
   12    10    13    1
   13    13    14    1
   14    13    15    1
   15    15    16    1
   16    15    17    1
   17     1    18    1
   18    15    18    1
   19    18    19    1
   20    18    20    1
   21    13    21    1
   22    21    22    1
@<TRIPOS>SUBSTRUCTURE
       1 MOL1            1 RESIDUE      1      MOL     
@<SCITEGIC>MOL_PROPERTY
VConf Rank
SciTegic.value.IntegerValue
933

@<SCITEGIC>MOL_PROPERTY
Conf_Id
SciTegic.value.IntegerValue
41

@<SCITEGIC>MOL_PROPERTY
Delta U+W
SciTegic.value.DoubleValue
-2.114

@<SCITEGIC>MOL_PROPERTY
U+W
SciTegic.value.DoubleValue
4.310

@<SCITEGIC>MOL_PROPERTY
Grad RMS
SciTegic.value.DoubleValue
0.000000

@<SCITEGIC>MOL_PROPERTY
U
SciTegic.value.DoubleValue
6.598

@<SCITEGIC>MOL_PROPERTY
W
SciTegic.value.DoubleValue
-2.289

@<SCITEGIC>MOL_PROPERTY
W(PB)
SciTegic.value.DoubleValue
-4.294

@<SCITEGIC>MOL_PROPERTY
W(SA)
SciTegic.value.DoubleValue
2.005

@<SCITEGIC>MOL_PROPERTY
Valence
SciTegic.value.DoubleValue
12.082

@<SCITEGIC>MOL_PROPERTY
Coulomb
SciTegic.value.DoubleValue
-7.801

@<SCITEGIC>MOL_PROPERTY
VdW
SciTegic.value.DoubleValue
2.317

@<SCITEGIC>MOL_PROPERTY
VdW6
SciTegic.value.DoubleValue
-9.658

@<SCITEGIC>MOL_PROPERTY
VdW12
SciTegic.value.DoubleValue
11.975

@<SCITEGIC>MOL_PROPERTY
Bond
SciTegic.value.DoubleValue
0.267

@<SCITEGIC>MOL_PROPERTY
Angle
SciTegic.value.DoubleValue
3.051

@<SCITEGIC>MOL_PROPERTY
Pdih
SciTegic.value.DoubleValue
8.764

@<SCITEGIC>MOL_PROPERTY
Idih
SciTegic.value.DoubleValue
0.000

@<SCITEGIC>MOL_PROPERTY
Tether
SciTegic.value.DoubleValue
0.000

@<TRIPOS>MOLECULE
guest-5_confgen4.mol2 : confsearch ligand conformer 934
          22          22           1
SMALL
USER_CHARGES
 
@<TRIPOS>ATOM
       1    C1      20.500266   20.818798   23.697008 C.3        1 MOL1        -0.1685
       2    H1      20.634845   21.800792   24.170427 H          1 MOL1         0.0832
       3    H2      20.721622   20.070891   24.470839 H          1 MOL1         0.0832
       4    C2      21.508043   20.712981   22.530571 C.3        1 MOL1        -0.1685
       5    H3      21.232565   21.425325   21.741104 H          1 MOL1         0.0832
       6    H4      22.496102   21.030029   22.890819 H          1 MOL1         0.0832
       7    C3      21.645302   19.299300   21.924033 C.3        1 MOL1        -0.1685
       8    H5      22.121785   18.632692   22.655118 H          1 MOL1         0.0832
       9    H6      22.346211   19.359594   21.080696 H          1 MOL1         0.0832
      10    C4      20.321100   18.668559   21.414285 C.3        1 MOL1        -0.1761
      11    H7      19.805183   19.366792   20.743049 H          1 MOL1         0.0832
      12    H8      20.583284   17.801245   20.794923 H          1 MOL1         0.0832
      13    C5      19.341846   18.169316   22.507835 C.3        1 MOL1         0.1218
      14    H9      18.638295   17.484673   22.012298 H          1 MOL1         0.0789
      15    C6      18.474639   19.259929   23.188757 C.3        1 MOL1        -0.1761
      16    H10     17.506643   19.294344   22.672169 H          1 MOL1         0.0832
      17    H11     18.242692   18.943889   24.214325 H          1 MOL1         0.0832
      18    C7      19.032415   20.704263   23.229770 C.3        1 MOL1        -0.1685
      19    H12     18.917901   21.176473   22.244723 H          1 MOL1         0.0832
      20    H13     18.400167   21.289004   23.911694 H          1 MOL1         0.0832
      21    O1      20.041523   17.423820   23.500612 O.3        1 MOL1        -0.5509
      22    H14     19.371459   17.102922   24.137753 H          1 MOL1         0.3779
@<TRIPOS>BOND
    1     1     2    1
    2     1     3    1
    3     1     4    1
    4     4     5    1
    5     4     6    1
    6     4     7    1
    7     7     8    1
    8     7     9    1
    9     7    10    1
   10    10    11    1
   11    10    12    1
   12    10    13    1
   13    13    14    1
   14    13    15    1
   15    15    16    1
   16    15    17    1
   17     1    18    1
   18    15    18    1
   19    18    19    1
   20    18    20    1
   21    13    21    1
   22    21    22    1
@<TRIPOS>SUBSTRUCTURE
       1 MOL1            1 RESIDUE      1      MOL     
@<SCITEGIC>MOL_PROPERTY
VConf Rank
SciTegic.value.IntegerValue
934

@<SCITEGIC>MOL_PROPERTY
Conf_Id
SciTegic.value.IntegerValue
104

@<SCITEGIC>MOL_PROPERTY
Delta U+W
SciTegic.value.DoubleValue
-1.172

@<SCITEGIC>MOL_PROPERTY
U+W
SciTegic.value.DoubleValue
5.252

@<SCITEGIC>MOL_PROPERTY
Grad RMS
SciTegic.value.DoubleValue
0.000000

@<SCITEGIC>MOL_PROPERTY
U
SciTegic.value.DoubleValue
7.482

@<SCITEGIC>MOL_PROPERTY
W
SciTegic.value.DoubleValue
-2.230

@<SCITEGIC>MOL_PROPERTY
W(PB)
SciTegic.value.DoubleValue
-4.220

@<SCITEGIC>MOL_PROPERTY
W(SA)
SciTegic.value.DoubleValue
1.990

@<SCITEGIC>MOL_PROPERTY
Valence
SciTegic.value.DoubleValue
12.309

@<SCITEGIC>MOL_PROPERTY
Coulomb
SciTegic.value.DoubleValue
-7.084

@<SCITEGIC>MOL_PROPERTY
VdW
SciTegic.value.DoubleValue
2.258

@<SCITEGIC>MOL_PROPERTY
VdW6
SciTegic.value.DoubleValue
-9.770

@<SCITEGIC>MOL_PROPERTY
VdW12
SciTegic.value.DoubleValue
12.028

@<SCITEGIC>MOL_PROPERTY
Bond
SciTegic.value.DoubleValue
0.284

@<SCITEGIC>MOL_PROPERTY
Angle
SciTegic.value.DoubleValue
3.491

@<SCITEGIC>MOL_PROPERTY
Pdih
SciTegic.value.DoubleValue
8.535

@<SCITEGIC>MOL_PROPERTY
Idih
SciTegic.value.DoubleValue
0.000

@<SCITEGIC>MOL_PROPERTY
Tether
SciTegic.value.DoubleValue
0.000

@<TRIPOS>MOLECULE
guest-5_confgen4.mol2 : confsearch ligand conformer 935
          22          22           1
SMALL
USER_CHARGES
 
@<TRIPOS>ATOM
       1    C1      20.178719   19.495636   24.307313 C.3        1 MOL1        -0.1685
       2    H1      20.416444   20.562664   24.414180 H          1 MOL1         0.0832
       3    H2      20.199317   19.078262   25.323342 H          1 MOL1         0.0832
       4    C2      21.260777   18.769425   23.475896 C.3        1 MOL1        -0.1685
       5    H3      22.124422   18.567931   24.124562 H          1 MOL1         0.0832
       6    H4      20.889517   17.778985   23.181736 H          1 MOL1         0.0832
       7    C3      21.774959   19.533304   22.229389 C.3        1 MOL1        -0.1685
       8    H5      22.156954   18.800336   21.505405 H          1 MOL1         0.0832
       9    H6      22.647116   20.132608   22.524524 H          1 MOL1         0.0832
      10    C4      20.775631   20.482568   21.514234 C.3        1 MOL1        -0.1761
      11    H7      20.707642   21.422298   22.077474 H          1 MOL1         0.0832
      12    H8      21.206979   20.759594   20.543565 H          1 MOL1         0.0832
      13    C5      19.346584   19.946046   21.269391 C.3        1 MOL1         0.1218
      14    H9      18.914111   20.531771   20.445512 H          1 MOL1         0.0789
      15    C6      18.416802   20.136513   22.489021 C.3        1 MOL1        -0.1761
      16    H10     18.406898   21.200030   22.760856 H          1 MOL1         0.0832
      17    H11     17.390754   19.901774   22.176983 H          1 MOL1         0.0832
      18    C7      18.749029   19.299547   23.749142 C.3        1 MOL1        -0.1685
      19    H12     18.031613   19.574573   24.534244 H          1 MOL1         0.0832
      20    H13     18.570822   18.234781   23.546670 H          1 MOL1         0.0832
      21    O1      19.385239   18.578353   20.892442 O.3        1 MOL1        -0.5509
      22    H14     19.853379   18.140523   21.630978 H          1 MOL1         0.3779
@<TRIPOS>BOND
    1     1     2    1
    2     1     3    1
    3     1     4    1
    4     4     5    1
    5     4     6    1
    6     4     7    1
    7     7     8    1
    8     7     9    1
    9     7    10    1
   10    10    11    1
   11    10    12    1
   12    10    13    1
   13    13    14    1
   14    13    15    1
   15    15    16    1
   16    15    17    1
   17     1    18    1
   18    15    18    1
   19    18    19    1
   20    18    20    1
   21    13    21    1
   22    21    22    1
@<TRIPOS>SUBSTRUCTURE
       1 MOL1            1 RESIDUE      1      MOL     
@<SCITEGIC>MOL_PROPERTY
VConf Rank
SciTegic.value.IntegerValue
935

@<SCITEGIC>MOL_PROPERTY
Conf_Id
SciTegic.value.IntegerValue
99

@<SCITEGIC>MOL_PROPERTY
Delta U+W
SciTegic.value.DoubleValue
-3.852

@<SCITEGIC>MOL_PROPERTY
U+W
SciTegic.value.DoubleValue
2.572

@<SCITEGIC>MOL_PROPERTY
Grad RMS
SciTegic.value.DoubleValue
0.000000

@<SCITEGIC>MOL_PROPERTY
U
SciTegic.value.DoubleValue
3.922

@<SCITEGIC>MOL_PROPERTY
W
SciTegic.value.DoubleValue
-1.350

@<SCITEGIC>MOL_PROPERTY
W(PB)
SciTegic.value.DoubleValue
-3.345

@<SCITEGIC>MOL_PROPERTY
W(SA)
SciTegic.value.DoubleValue
1.995

@<SCITEGIC>MOL_PROPERTY
Valence
SciTegic.value.DoubleValue
12.571

@<SCITEGIC>MOL_PROPERTY
Coulomb
SciTegic.value.DoubleValue
-10.581

@<SCITEGIC>MOL_PROPERTY
VdW
SciTegic.value.DoubleValue
1.932

@<SCITEGIC>MOL_PROPERTY
VdW6
SciTegic.value.DoubleValue
-10.483

@<SCITEGIC>MOL_PROPERTY
VdW12
SciTegic.value.DoubleValue
12.415

@<SCITEGIC>MOL_PROPERTY
Bond
SciTegic.value.DoubleValue
0.268

@<SCITEGIC>MOL_PROPERTY
Angle
SciTegic.value.DoubleValue
3.728

@<SCITEGIC>MOL_PROPERTY
Pdih
SciTegic.value.DoubleValue
8.575

@<SCITEGIC>MOL_PROPERTY
Idih
SciTegic.value.DoubleValue
0.000

@<SCITEGIC>MOL_PROPERTY
Tether
SciTegic.value.DoubleValue
0.000

@<TRIPOS>MOLECULE
guest-5_confgen4.mol2 : confsearch ligand conformer 936
          22          22           1
SMALL
USER_CHARGES
 
@<TRIPOS>ATOM
       1    C1      18.774840   19.216697   23.650913 C.3        1 MOL1        -0.1685
       2    H1      17.964408   18.546142   23.968480 H          1 MOL1         0.0832
       3    H2      18.709572   20.079616   24.327053 H          1 MOL1         0.0832
       4    C2      18.482599   19.658898   22.187047 C.3        1 MOL1        -0.1685
       5    H3      17.545593   19.179872   21.871065 H          1 MOL1         0.0832
       6    H4      18.275418   20.736799   22.151564 H          1 MOL1         0.0832
       7    C3      19.570147   19.304765   21.140825 C.3        1 MOL1        -0.1685
       8    H5      19.160803   19.491825   20.138742 H          1 MOL1         0.0832
       9    H6      19.766294   18.225564   21.161363 H          1 MOL1         0.0832
      10    C4      20.909502   20.083699   21.260071 C.3        1 MOL1        -0.1761
      11    H7      21.692483   19.497861   20.761597 H          1 MOL1         0.0832
      12    H8      20.824878   21.010308   20.676779 H          1 MOL1         0.0832
      13    C5      21.409904   20.467073   22.674561 C.3        1 MOL1         0.1218
      14    H9      22.453134   20.796649   22.565826 H          1 MOL1         0.0789
      15    C6      21.403186   19.336998   23.733349 C.3        1 MOL1        -0.1761
      16    H10     22.244656   18.663030   23.527349 H          1 MOL1         0.0832
      17    H11     21.628915   19.793844   24.706147 H          1 MOL1         0.0832
      18    C7      20.117387   18.477033   23.881608 C.3        1 MOL1        -0.1685
      19    H12     20.177560   17.603862   23.220155 H          1 MOL1         0.0832
      20    H13     20.110577   18.055013   24.895796 H          1 MOL1         0.0832
      21    O1      20.668504   21.576301   23.157450 O.3        1 MOL1        -0.5509
      22    H14     19.755510   21.234052   23.236446 H          1 MOL1         0.3779
@<TRIPOS>BOND
    1     1     2    1
    2     1     3    1
    3     1     4    1
    4     4     5    1
    5     4     6    1
    6     4     7    1
    7     7     8    1
    8     7     9    1
    9     7    10    1
   10    10    11    1
   11    10    12    1
   12    10    13    1
   13    13    14    1
   14    13    15    1
   15    15    16    1
   16    15    17    1
   17     1    18    1
   18    15    18    1
   19    18    19    1
   20    18    20    1
   21    13    21    1
   22    21    22    1
@<TRIPOS>SUBSTRUCTURE
       1 MOL1            1 RESIDUE      1      MOL     
@<SCITEGIC>MOL_PROPERTY
VConf Rank
SciTegic.value.IntegerValue
936

@<SCITEGIC>MOL_PROPERTY
Conf_Id
SciTegic.value.IntegerValue
98

@<SCITEGIC>MOL_PROPERTY
Delta U+W
SciTegic.value.DoubleValue
0.930

@<SCITEGIC>MOL_PROPERTY
U+W
SciTegic.value.DoubleValue
7.353

@<SCITEGIC>MOL_PROPERTY
Grad RMS
SciTegic.value.DoubleValue
0.000000

@<SCITEGIC>MOL_PROPERTY
U
SciTegic.value.DoubleValue
8.455

@<SCITEGIC>MOL_PROPERTY
W
SciTegic.value.DoubleValue
-1.102

@<SCITEGIC>MOL_PROPERTY
W(PB)
SciTegic.value.DoubleValue
-3.101

@<SCITEGIC>MOL_PROPERTY
W(SA)
SciTegic.value.DoubleValue
2.000

@<SCITEGIC>MOL_PROPERTY
Valence
SciTegic.value.DoubleValue
15.601

@<SCITEGIC>MOL_PROPERTY
Coulomb
SciTegic.value.DoubleValue
-10.573

@<SCITEGIC>MOL_PROPERTY
VdW
SciTegic.value.DoubleValue
3.427

@<SCITEGIC>MOL_PROPERTY
VdW6
SciTegic.value.DoubleValue
-11.360

@<SCITEGIC>MOL_PROPERTY
VdW12
SciTegic.value.DoubleValue
14.787

@<SCITEGIC>MOL_PROPERTY
Bond
SciTegic.value.DoubleValue
0.471

@<SCITEGIC>MOL_PROPERTY
Angle
SciTegic.value.DoubleValue
5.445

@<SCITEGIC>MOL_PROPERTY
Pdih
SciTegic.value.DoubleValue
9.685

@<SCITEGIC>MOL_PROPERTY
Idih
SciTegic.value.DoubleValue
0.000

@<SCITEGIC>MOL_PROPERTY
Tether
SciTegic.value.DoubleValue
0.000

@<TRIPOS>MOLECULE
guest-5_confgen4.mol2 : confsearch ligand conformer 937
          22          22           1
SMALL
USER_CHARGES
 
@<TRIPOS>ATOM
       1    C1      20.282733   18.295041   23.816170 C.3        1 MOL1        -0.1685
       2    H1      21.177865   18.022204   23.242515 H          1 MOL1         0.0832
       3    H2      20.285842   17.623866   24.685783 H          1 MOL1         0.0832
       4    C2      19.013321   18.006637   22.974996 C.3        1 MOL1        -0.1685
       5    H3      19.015099   16.935652   22.730327 H          1 MOL1         0.0832
       6    H4      18.118869   18.169383   23.591514 H          1 MOL1         0.0832
       7    C3      18.871978   18.805114   21.649439 C.3        1 MOL1        -0.1685
       8    H5      18.141431   19.614936   21.773956 H          1 MOL1         0.0832
       9    H6      18.430939   18.140187   20.894462 H          1 MOL1         0.0832
      10    C4      20.196767   19.385534   21.087517 C.3        1 MOL1        -0.1761
      11    H7      20.943129   18.583851   21.025258 H          1 MOL1         0.0832
      12    H8      20.025086   19.691900   20.046819 H          1 MOL1         0.0832
      13    C5      20.800563   20.586304   21.873299 C.3        1 MOL1         0.1218
      14    H9      21.876600   20.400228   22.002088 H          1 MOL1         0.0789
      15    C6      20.186950   20.858977   23.269503 C.3        1 MOL1        -0.1761
      16    H10     20.606017   21.793037   23.665701 H          1 MOL1         0.0832
      17    H11     19.111543   21.048869   23.169350 H          1 MOL1         0.0832
      18    C7      20.419129   19.749311   24.325221 C.3        1 MOL1        -0.1685
      19    H12     21.424454   19.869103   24.751583 H          1 MOL1         0.0832
      20    H13     19.718550   19.907373   25.156412 H          1 MOL1         0.0832
      21    O1      20.630195   21.765505   21.095073 O.3        1 MOL1        -0.5509
      22    H14     21.068194   22.492790   21.584351 H          1 MOL1         0.3779
@<TRIPOS>BOND
    1     1     2    1
    2     1     3    1
    3     1     4    1
    4     4     5    1
    5     4     6    1
    6     4     7    1
    7     7     8    1
    8     7     9    1
    9     7    10    1
   10    10    11    1
   11    10    12    1
   12    10    13    1
   13    13    14    1
   14    13    15    1
   15    15    16    1
   16    15    17    1
   17     1    18    1
   18    15    18    1
   19    18    19    1
   20    18    20    1
   21    13    21    1
   22    21    22    1
@<TRIPOS>SUBSTRUCTURE
       1 MOL1            1 RESIDUE      1      MOL     
@<SCITEGIC>MOL_PROPERTY
VConf Rank
SciTegic.value.IntegerValue
937

@<SCITEGIC>MOL_PROPERTY
Conf_Id
SciTegic.value.IntegerValue
141

@<SCITEGIC>MOL_PROPERTY
Delta U+W
SciTegic.value.DoubleValue
0.000

@<SCITEGIC>MOL_PROPERTY
U+W
SciTegic.value.DoubleValue
6.423

@<SCITEGIC>MOL_PROPERTY
Grad RMS
SciTegic.value.DoubleValue
0.000000

@<SCITEGIC>MOL_PROPERTY
U
SciTegic.value.DoubleValue
8.781

@<SCITEGIC>MOL_PROPERTY
W
SciTegic.value.DoubleValue
-2.358

@<SCITEGIC>MOL_PROPERTY
W(PB)
SciTegic.value.DoubleValue
-4.373

@<SCITEGIC>MOL_PROPERTY
W(SA)
SciTegic.value.DoubleValue
2.015

@<SCITEGIC>MOL_PROPERTY
Valence
SciTegic.value.DoubleValue
13.328

@<SCITEGIC>MOL_PROPERTY
Coulomb
SciTegic.value.DoubleValue
-8.387

@<SCITEGIC>MOL_PROPERTY
VdW
SciTegic.value.DoubleValue
3.840

@<SCITEGIC>MOL_PROPERTY
VdW6
SciTegic.value.DoubleValue
-9.744

@<SCITEGIC>MOL_PROPERTY
VdW12
SciTegic.value.DoubleValue
13.584

@<SCITEGIC>MOL_PROPERTY
Bond
SciTegic.value.DoubleValue
0.436

@<SCITEGIC>MOL_PROPERTY
Angle
SciTegic.value.DoubleValue
3.478

@<SCITEGIC>MOL_PROPERTY
Pdih
SciTegic.value.DoubleValue
9.415

@<SCITEGIC>MOL_PROPERTY
Idih
SciTegic.value.DoubleValue
0.000

@<SCITEGIC>MOL_PROPERTY
Tether
SciTegic.value.DoubleValue
0.000

@<TRIPOS>MOLECULE
guest-5_confgen4.mol2 : confsearch ligand conformer 938
          22          22           1
SMALL
USER_CHARGES
 
@<TRIPOS>ATOM
       1    C1      19.807794   20.857586   23.872123 C.3        1 MOL1        -0.1685
       2    H1      20.095050   20.122264   24.635925 H          1 MOL1         0.0832
       3    H2      19.680067   21.811526   24.401829 H          1 MOL1         0.0832
       4    C2      18.446936   20.489315   23.233298 C.3        1 MOL1        -0.1685
       5    H3      17.659386   20.619705   23.988029 H          1 MOL1         0.0832
       6    H4      18.214721   21.205203   22.433011 H          1 MOL1         0.0832
       7    C3      18.347762   19.050340   22.676661 C.3        1 MOL1        -0.1685
       8    H5      17.367470   18.936716   22.194018 H          1 MOL1         0.0832
       9    H6      18.355757   18.335182   23.510594 H          1 MOL1         0.0832
      10    C4      19.447961   18.666090   21.657301 C.3        1 MOL1        -0.1761
      11    H7      19.139373   17.730406   21.172787 H          1 MOL1         0.0832
      12    H8      19.514768   19.416076   20.858517 H          1 MOL1         0.0832
      13    C5      20.828100   18.456557   22.319824 C.3        1 MOL1         0.1218
      14    H9      20.667335   18.052162   23.329508 H          1 MOL1         0.0789
      15    C6      21.683126   19.738532   22.441349 C.3        1 MOL1        -0.1761
      16    H10     22.463665   19.546451   23.188820 H          1 MOL1         0.0832
      17    H11     22.210523   19.914696   21.494285 H          1 MOL1         0.0832
      18    C7      20.933809   21.038354   22.827394 C.3        1 MOL1        -0.1685
      19    H12     21.671739   21.752233   23.218110 H          1 MOL1         0.0832
      20    H13     20.521482   21.507033   21.923494 H          1 MOL1         0.0832
      21    O1      21.563196   17.507129   21.557302 O.3        1 MOL1        -0.5509
      22    H14     21.039037   16.678953   21.556592 H          1 MOL1         0.3779
@<TRIPOS>BOND
    1     1     2    1
    2     1     3    1
    3     1     4    1
    4     4     5    1
    5     4     6    1
    6     4     7    1
    7     7     8    1
    8     7     9    1
    9     7    10    1
   10    10    11    1
   11    10    12    1
   12    10    13    1
   13    13    14    1
   14    13    15    1
   15    15    16    1
   16    15    17    1
   17     1    18    1
   18    15    18    1
   19    18    19    1
   20    18    20    1
   21    13    21    1
   22    21    22    1
@<TRIPOS>SUBSTRUCTURE
       1 MOL1            1 RESIDUE      1      MOL     
@<SCITEGIC>MOL_PROPERTY
VConf Rank
SciTegic.value.IntegerValue
938

@<SCITEGIC>MOL_PROPERTY
Conf_Id
SciTegic.value.IntegerValue
144

@<SCITEGIC>MOL_PROPERTY
Delta U+W
SciTegic.value.DoubleValue
-3.291

@<SCITEGIC>MOL_PROPERTY
U+W
SciTegic.value.DoubleValue
3.132

@<SCITEGIC>MOL_PROPERTY
Grad RMS
SciTegic.value.DoubleValue
0.000000

@<SCITEGIC>MOL_PROPERTY
U
SciTegic.value.DoubleValue
5.411

@<SCITEGIC>MOL_PROPERTY
W
SciTegic.value.DoubleValue
-2.279

@<SCITEGIC>MOL_PROPERTY
W(PB)
SciTegic.value.DoubleValue
-4.300

@<SCITEGIC>MOL_PROPERTY
W(SA)
SciTegic.value.DoubleValue
2.021

@<SCITEGIC>MOL_PROPERTY
Valence
SciTegic.value.DoubleValue
11.909

@<SCITEGIC>MOL_PROPERTY
Coulomb
SciTegic.value.DoubleValue
-8.733

@<SCITEGIC>MOL_PROPERTY
VdW
SciTegic.value.DoubleValue
2.236

@<SCITEGIC>MOL_PROPERTY
VdW6
SciTegic.value.DoubleValue
-8.936

@<SCITEGIC>MOL_PROPERTY
VdW12
SciTegic.value.DoubleValue
11.172

@<SCITEGIC>MOL_PROPERTY
Bond
SciTegic.value.DoubleValue
0.223

@<SCITEGIC>MOL_PROPERTY
Angle
SciTegic.value.DoubleValue
2.457

@<SCITEGIC>MOL_PROPERTY
Pdih
SciTegic.value.DoubleValue
9.228

@<SCITEGIC>MOL_PROPERTY
Idih
SciTegic.value.DoubleValue
0.000

@<SCITEGIC>MOL_PROPERTY
Tether
SciTegic.value.DoubleValue
0.000

@<TRIPOS>MOLECULE
guest-5_confgen4.mol2 : confsearch ligand conformer 939
          22          22           1
SMALL
USER_CHARGES
 
@<TRIPOS>ATOM
       1    C1      20.706586   18.353794   21.664847 C.3        1 MOL1        -0.1685
       2    H1      21.051925   17.409600   21.221985 H          1 MOL1         0.0832
       3    H2      21.150912   19.154479   21.058085 H          1 MOL1         0.0832
       4    C2      21.222184   18.415608   23.121697 C.3        1 MOL1        -0.1685
       5    H3      20.547081   17.843918   23.772989 H          1 MOL1         0.0832
       6    H4      22.190295   17.899312   23.178234 H          1 MOL1         0.0832
       7    C3      21.409021   19.842469   23.691856 C.3        1 MOL1        -0.1685
       8    H5      22.388231   20.227974   23.376498 H          1 MOL1         0.0832
       9    H6      21.455826   19.769996   24.787107 H          1 MOL1         0.0832
      10    C4      20.332128   20.884517   23.301244 C.3        1 MOL1        -0.1761
      11    H7      20.395849   21.716978   24.014980 H          1 MOL1         0.0832
      12    H8      20.582929   21.312275   22.321950 H          1 MOL1         0.0832
      13    C5      18.884878   20.344240   23.267184 C.3        1 MOL1         0.1218
      14    H9      18.757787   19.582233   24.049272 H          1 MOL1         0.0789
      15    C6      18.508322   19.744909   21.893145 C.3        1 MOL1        -0.1761
      16    H10     17.418355   19.616745   21.852171 H          1 MOL1         0.0832
      17    H11     18.759512   20.460966   21.099892 H          1 MOL1         0.0832
      18    C7      19.162132   18.380362   21.570252 C.3        1 MOL1        -0.1685
      19    H12     18.742803   17.610152   22.231966 H          1 MOL1         0.0832
      20    H13     18.868615   18.091749   20.551753 H          1 MOL1         0.0832
      21    O1      17.998613   21.423939   23.529858 O.3        1 MOL1        -0.5509
      22    H14     18.142089   22.079411   22.816463 H          1 MOL1         0.3779
@<TRIPOS>BOND
    1     1     2    1
    2     1     3    1
    3     1     4    1
    4     4     5    1
    5     4     6    1
    6     4     7    1
    7     7     8    1
    8     7     9    1
    9     7    10    1
   10    10    11    1
   11    10    12    1
   12    10    13    1
   13    13    14    1
   14    13    15    1
   15    15    16    1
   16    15    17    1
   17     1    18    1
   18    15    18    1
   19    18    19    1
   20    18    20    1
   21    13    21    1
   22    21    22    1
@<TRIPOS>SUBSTRUCTURE
       1 MOL1            1 RESIDUE      1      MOL     
@<SCITEGIC>MOL_PROPERTY
VConf Rank
SciTegic.value.IntegerValue
939

@<SCITEGIC>MOL_PROPERTY
Conf_Id
SciTegic.value.IntegerValue
76

@<SCITEGIC>MOL_PROPERTY
Delta U+W
SciTegic.value.DoubleValue
-3.175

@<SCITEGIC>MOL_PROPERTY
U+W
SciTegic.value.DoubleValue
3.248

@<SCITEGIC>MOL_PROPERTY
Grad RMS
SciTegic.value.DoubleValue
0.000000

@<SCITEGIC>MOL_PROPERTY
U
SciTegic.value.DoubleValue
5.336

@<SCITEGIC>MOL_PROPERTY
W
SciTegic.value.DoubleValue
-2.088

@<SCITEGIC>MOL_PROPERTY
W(PB)
SciTegic.value.DoubleValue
-4.098

@<SCITEGIC>MOL_PROPERTY
W(SA)
SciTegic.value.DoubleValue
2.010

@<SCITEGIC>MOL_PROPERTY
Valence
SciTegic.value.DoubleValue
12.390

@<SCITEGIC>MOL_PROPERTY
Coulomb
SciTegic.value.DoubleValue
-9.270

@<SCITEGIC>MOL_PROPERTY
VdW
SciTegic.value.DoubleValue
2.216

@<SCITEGIC>MOL_PROPERTY
VdW6
SciTegic.value.DoubleValue
-8.967

@<SCITEGIC>MOL_PROPERTY
VdW12
SciTegic.value.DoubleValue
11.183

@<SCITEGIC>MOL_PROPERTY
Bond
SciTegic.value.DoubleValue
0.218

@<SCITEGIC>MOL_PROPERTY
Angle
SciTegic.value.DoubleValue
2.426

@<SCITEGIC>MOL_PROPERTY
Pdih
SciTegic.value.DoubleValue
9.745

@<SCITEGIC>MOL_PROPERTY
Idih
SciTegic.value.DoubleValue
0.000

@<SCITEGIC>MOL_PROPERTY
Tether
SciTegic.value.DoubleValue
0.000

@<TRIPOS>MOLECULE
guest-5_confgen4.mol2 : confsearch ligand conformer 940
          22          22           1
SMALL
USER_CHARGES
 
@<TRIPOS>ATOM
       1    C1      21.455991   19.735177   21.438235 C.3        1 MOL1        -0.1685
       2    H1      22.086656   18.934937   21.027554 H          1 MOL1         0.0832
       3    H2      21.749950   20.649627   20.905147 H          1 MOL1         0.0832
       4    C2      21.796840   19.898040   22.938892 C.3        1 MOL1        -0.1685
       5    H3      22.009622   18.912871   23.375520 H          1 MOL1         0.0832
       6    H4      22.736727   20.461711   23.014205 H          1 MOL1         0.0832
       7    C3      20.714430   20.611509   23.782037 C.3        1 MOL1        -0.1685
       8    H5      20.240143   21.420819   23.210282 H          1 MOL1         0.0832
       9    H6      21.209547   21.091902   24.636657 H          1 MOL1         0.0832
      10    C4      19.649301   19.634659   24.341808 C.3        1 MOL1        -0.1761
      11    H7      20.154157   18.800162   24.845045 H          1 MOL1         0.0832
      12    H8      19.079043   20.150024   25.125785 H          1 MOL1         0.0832
      13    C5      18.642154   19.062622   23.318321 C.3        1 MOL1         0.1218
      14    H9      18.086868   18.264582   23.832021 H          1 MOL1         0.0789
      15    C6      19.274947   18.434623   22.051167 C.3        1 MOL1        -0.1761
      16    H10     19.974439   17.639424   22.339692 H          1 MOL1         0.0832
      17    H11     18.472539   17.934762   21.493432 H          1 MOL1         0.0832
      18    C7      19.976061   19.437587   21.098425 C.3        1 MOL1        -0.1685
      19    H12     19.938718   19.038824   20.075675 H          1 MOL1         0.0832
      20    H13     19.413876   20.380016   21.063532 H          1 MOL1         0.0832
      21    O1      17.716846   20.080674   22.950356 O.3        1 MOL1        -0.5509
      22    H14     17.133367   19.693256   22.266439 H          1 MOL1         0.3779
@<TRIPOS>BOND
    1     1     2    1
    2     1     3    1
    3     1     4    1
    4     4     5    1
    5     4     6    1
    6     4     7    1
    7     7     8    1
    8     7     9    1
    9     7    10    1
   10    10    11    1
   11    10    12    1
   12    10    13    1
   13    13    14    1
   14    13    15    1
   15    15    16    1
   16    15    17    1
   17     1    18    1
   18    15    18    1
   19    18    19    1
   20    18    20    1
   21    13    21    1
   22    21    22    1
@<TRIPOS>SUBSTRUCTURE
       1 MOL1            1 RESIDUE      1      MOL     
@<SCITEGIC>MOL_PROPERTY
VConf Rank
SciTegic.value.IntegerValue
940

@<SCITEGIC>MOL_PROPERTY
Conf_Id
SciTegic.value.IntegerValue
95

@<SCITEGIC>MOL_PROPERTY
Delta U+W
SciTegic.value.DoubleValue
-2.289

@<SCITEGIC>MOL_PROPERTY
U+W
SciTegic.value.DoubleValue
4.134

@<SCITEGIC>MOL_PROPERTY
Grad RMS
SciTegic.value.DoubleValue
0.000000

@<SCITEGIC>MOL_PROPERTY
U
SciTegic.value.DoubleValue
6.373

@<SCITEGIC>MOL_PROPERTY
W
SciTegic.value.DoubleValue
-2.240

@<SCITEGIC>MOL_PROPERTY
W(PB)
SciTegic.value.DoubleValue
-4.254

@<SCITEGIC>MOL_PROPERTY
W(SA)
SciTegic.value.DoubleValue
2.015

@<SCITEGIC>MOL_PROPERTY
Valence
SciTegic.value.DoubleValue
12.093

@<SCITEGIC>MOL_PROPERTY
Coulomb
SciTegic.value.DoubleValue
-8.058

@<SCITEGIC>MOL_PROPERTY
VdW
SciTegic.value.DoubleValue
2.339

@<SCITEGIC>MOL_PROPERTY
VdW6
SciTegic.value.DoubleValue
-9.683

@<SCITEGIC>MOL_PROPERTY
VdW12
SciTegic.value.DoubleValue
12.022

@<SCITEGIC>MOL_PROPERTY
Bond
SciTegic.value.DoubleValue
0.268

@<SCITEGIC>MOL_PROPERTY
Angle
SciTegic.value.DoubleValue
3.005

@<SCITEGIC>MOL_PROPERTY
Pdih
SciTegic.value.DoubleValue
8.820

@<SCITEGIC>MOL_PROPERTY
Idih
SciTegic.value.DoubleValue
0.000

@<SCITEGIC>MOL_PROPERTY
Tether
SciTegic.value.DoubleValue
0.000

@<TRIPOS>MOLECULE
guest-5_confgen4.mol2 : confsearch ligand conformer 941
          22          22           1
SMALL
USER_CHARGES
 
@<TRIPOS>ATOM
       1    C1      21.086520   18.105269   22.209338 C.3        1 MOL1        -0.1685
       2    H1      21.084583   17.569402   21.250382 H          1 MOL1         0.0832
       3    H2      21.847949   17.609028   22.826395 H          1 MOL1         0.0832
       4    C2      19.701767   17.914714   22.873021 C.3        1 MOL1        -0.1685
       5    H3      18.922722   17.908047   22.098731 H          1 MOL1         0.0832
       6    H4      19.676299   16.913010   23.323287 H          1 MOL1         0.0832
       7    C3      19.343841   18.960568   23.954499 C.3        1 MOL1        -0.1685
       8    H5      20.228407   19.232678   24.546376 H          1 MOL1         0.0832
       9    H6      18.638217   18.496214   24.656565 H          1 MOL1         0.0832
      10    C4      18.662381   20.221016   23.364421 C.3        1 MOL1        -0.1761
      11    H7      17.837065   19.910137   22.710889 H          1 MOL1         0.0832
      12    H8      18.190682   20.780508   24.182621 H          1 MOL1         0.0832
      13    C5      19.578487   21.186935   22.578618 C.3        1 MOL1         0.1218
      14    H9      18.921243   21.918875   22.087297 H          1 MOL1         0.0789
      15    C6      20.432559   20.525944   21.467769 C.3        1 MOL1        -0.1761
      16    H10     19.780931   20.008185   20.752370 H          1 MOL1         0.0832
      17    H11     20.913575   21.335448   20.903717 H          1 MOL1         0.0832
      18    C7      21.540924   19.565210   21.971714 C.3        1 MOL1        -0.1685
      19    H12     22.355362   19.549307   21.235063 H          1 MOL1         0.0832
      20    H13     21.989895   19.963078   22.891358 H          1 MOL1         0.0832
      21    O1      20.419008   21.887453   23.490588 O.3        1 MOL1        -0.5509
      22    H14     19.833921   22.268792   24.176474 H          1 MOL1         0.3779
@<TRIPOS>BOND
    1     1     2    1
    2     1     3    1
    3     1     4    1
    4     4     5    1
    5     4     6    1
    6     4     7    1
    7     7     8    1
    8     7     9    1
    9     7    10    1
   10    10    11    1
   11    10    12    1
   12    10    13    1
   13    13    14    1
   14    13    15    1
   15    15    16    1
   16    15    17    1
   17     1    18    1
   18    15    18    1
   19    18    19    1
   20    18    20    1
   21    13    21    1
   22    21    22    1
@<TRIPOS>SUBSTRUCTURE
       1 MOL1            1 RESIDUE      1      MOL     
@<SCITEGIC>MOL_PROPERTY
VConf Rank
SciTegic.value.IntegerValue
941

@<SCITEGIC>MOL_PROPERTY
Conf_Id
SciTegic.value.IntegerValue
41

@<SCITEGIC>MOL_PROPERTY
Delta U+W
SciTegic.value.DoubleValue
-2.114

@<SCITEGIC>MOL_PROPERTY
U+W
SciTegic.value.DoubleValue
4.310

@<SCITEGIC>MOL_PROPERTY
Grad RMS
SciTegic.value.DoubleValue
0.000000

@<SCITEGIC>MOL_PROPERTY
U
SciTegic.value.DoubleValue
6.598

@<SCITEGIC>MOL_PROPERTY
W
SciTegic.value.DoubleValue
-2.289

@<SCITEGIC>MOL_PROPERTY
W(PB)
SciTegic.value.DoubleValue
-4.294

@<SCITEGIC>MOL_PROPERTY
W(SA)
SciTegic.value.DoubleValue
2.005

@<SCITEGIC>MOL_PROPERTY
Valence
SciTegic.value.DoubleValue
12.082

@<SCITEGIC>MOL_PROPERTY
Coulomb
SciTegic.value.DoubleValue
-7.801

@<SCITEGIC>MOL_PROPERTY
VdW
SciTegic.value.DoubleValue
2.317

@<SCITEGIC>MOL_PROPERTY
VdW6
SciTegic.value.DoubleValue
-9.658

@<SCITEGIC>MOL_PROPERTY
VdW12
SciTegic.value.DoubleValue
11.975

@<SCITEGIC>MOL_PROPERTY
Bond
SciTegic.value.DoubleValue
0.267

@<SCITEGIC>MOL_PROPERTY
Angle
SciTegic.value.DoubleValue
3.051

@<SCITEGIC>MOL_PROPERTY
Pdih
SciTegic.value.DoubleValue
8.764

@<SCITEGIC>MOL_PROPERTY
Idih
SciTegic.value.DoubleValue
0.000

@<SCITEGIC>MOL_PROPERTY
Tether
SciTegic.value.DoubleValue
0.000

@<TRIPOS>MOLECULE
guest-5_confgen4.mol2 : confsearch ligand conformer 942
          22          22           1
SMALL
USER_CHARGES
 
@<TRIPOS>ATOM
       1    C1      18.867258   18.835718   21.821323 C.3        1 MOL1        -0.1685
       2    H1      17.970568   18.308850   21.467901 H          1 MOL1         0.0832
       3    H2      19.200821   19.469193   20.987883 H          1 MOL1         0.0832
       4    C2      19.936785   17.774215   22.162949 C.3        1 MOL1        -0.1685
       5    H3      19.611910   17.193105   23.036648 H          1 MOL1         0.0832
       6    H4      19.999036   17.058839   21.331732 H          1 MOL1         0.0832
       7    C3      21.349893   18.342544   22.418583 C.3        1 MOL1        -0.1685
       8    H5      21.759971   18.738144   21.479847 H          1 MOL1         0.0832
       9    H6      22.005587   17.506522   22.696539 H          1 MOL1         0.0832
      10    C4      21.435706   19.421500   23.531991 C.3        1 MOL1        -0.1761
      11    H7      20.956490   19.055568   24.448890 H          1 MOL1         0.0832
      12    H8      22.495495   19.554580   23.784419 H          1 MOL1         0.0832
      13    C5      20.874278   20.819914   23.166930 C.3        1 MOL1         0.1218
      14    H9      21.286362   21.526748   23.901675 H          1 MOL1         0.0789
      15    C6      19.332579   20.970785   23.241367 C.3        1 MOL1        -0.1761
      16    H10     19.080197   21.387824   24.224955 H          1 MOL1         0.0832
      17    H11     19.011970   21.729899   22.515814 H          1 MOL1         0.0832
      18    C7      18.472270   19.698684   23.040048 C.3        1 MOL1        -0.1685
      19    H12     18.492956   19.086260   23.951598 H          1 MOL1         0.0832
      20    H13     17.427103   20.015517   22.922063 H          1 MOL1         0.0832
      21    O1      21.333762   21.220658   21.878831 O.3        1 MOL1        -0.5509
      22    H14     20.982887   22.120564   21.720824 H          1 MOL1         0.3779
@<TRIPOS>BOND
    1     1     2    1
    2     1     3    1
    3     1     4    1
    4     4     5    1
    5     4     6    1
    6     4     7    1
    7     7     8    1
    8     7     9    1
    9     7    10    1
   10    10    11    1
   11    10    12    1
   12    10    13    1
   13    13    14    1
   14    13    15    1
   15    15    16    1
   16    15    17    1
   17     1    18    1
   18    15    18    1
   19    18    19    1
   20    18    20    1
   21    13    21    1
   22    21    22    1
@<TRIPOS>SUBSTRUCTURE
       1 MOL1            1 RESIDUE      1      MOL     
@<SCITEGIC>MOL_PROPERTY
VConf Rank
SciTegic.value.IntegerValue
942

@<SCITEGIC>MOL_PROPERTY
Conf_Id
SciTegic.value.IntegerValue
104

@<SCITEGIC>MOL_PROPERTY
Delta U+W
SciTegic.value.DoubleValue
-1.172

@<SCITEGIC>MOL_PROPERTY
U+W
SciTegic.value.DoubleValue
5.252

@<SCITEGIC>MOL_PROPERTY
Grad RMS
SciTegic.value.DoubleValue
0.000000

@<SCITEGIC>MOL_PROPERTY
U
SciTegic.value.DoubleValue
7.482

@<SCITEGIC>MOL_PROPERTY
W
SciTegic.value.DoubleValue
-2.230

@<SCITEGIC>MOL_PROPERTY
W(PB)
SciTegic.value.DoubleValue
-4.220

@<SCITEGIC>MOL_PROPERTY
W(SA)
SciTegic.value.DoubleValue
1.990

@<SCITEGIC>MOL_PROPERTY
Valence
SciTegic.value.DoubleValue
12.309

@<SCITEGIC>MOL_PROPERTY
Coulomb
SciTegic.value.DoubleValue
-7.084

@<SCITEGIC>MOL_PROPERTY
VdW
SciTegic.value.DoubleValue
2.258

@<SCITEGIC>MOL_PROPERTY
VdW6
SciTegic.value.DoubleValue
-9.770

@<SCITEGIC>MOL_PROPERTY
VdW12
SciTegic.value.DoubleValue
12.028

@<SCITEGIC>MOL_PROPERTY
Bond
SciTegic.value.DoubleValue
0.284

@<SCITEGIC>MOL_PROPERTY
Angle
SciTegic.value.DoubleValue
3.491

@<SCITEGIC>MOL_PROPERTY
Pdih
SciTegic.value.DoubleValue
8.535

@<SCITEGIC>MOL_PROPERTY
Idih
SciTegic.value.DoubleValue
0.000

@<SCITEGIC>MOL_PROPERTY
Tether
SciTegic.value.DoubleValue
0.000

@<TRIPOS>MOLECULE
guest-5_confgen4.mol2 : confsearch ligand conformer 943
          22          22           1
SMALL
USER_CHARGES
 
@<TRIPOS>ATOM
       1    C1      21.587647   19.733157   22.066763 C.3        1 MOL1        -0.1685
       2    H1      22.059349   19.496708   23.030128 H          1 MOL1         0.0832
       3    H2      22.411522   19.930143   21.367216 H          1 MOL1         0.0832
       4    C2      20.736908   21.019691   22.169515 C.3        1 MOL1        -0.1685
       5    H3      21.407589   21.888365   22.116229 H          1 MOL1         0.0832
       6    H4      20.094280   21.102449   21.283222 H          1 MOL1         0.0832
       7    C3      19.884397   21.160024   23.456063 C.3        1 MOL1        -0.1685
       8    H5      19.030031   21.815422   23.237367 H          1 MOL1         0.0832
       9    H6      20.477620   21.696683   24.209065 H          1 MOL1         0.0832
      10    C4      19.367588   19.851608   24.113452 C.3        1 MOL1        -0.1761
      11    H7      20.182356   19.392836   24.688462 H          1 MOL1         0.0832
      12    H8      18.607934   20.123539   24.857751 H          1 MOL1         0.0832
      13    C5      18.760019   18.783966   23.174846 C.3        1 MOL1         0.1218
      14    H9      18.109297   18.142862   23.786751 H          1 MOL1         0.0789
      15    C6      19.827874   17.862887   22.542732 C.3        1 MOL1        -0.1761
      16    H10     20.416979   17.403857   23.347287 H          1 MOL1         0.0832
      17    H11     19.311402   17.032381   22.043972 H          1 MOL1         0.0832
      18    C7      20.793668   18.520262   21.525928 C.3        1 MOL1        -0.1685
      19    H12     21.511817   17.755080   21.201167 H          1 MOL1         0.0832
      20    H13     20.241734   18.809522   20.621397 H          1 MOL1         0.0832
      21    O1      17.980550   19.397720   22.160005 O.3        1 MOL1        -0.5509
      22    H14     18.603146   20.008362   21.717537 H          1 MOL1         0.3779
@<TRIPOS>BOND
    1     1     2    1
    2     1     3    1
    3     1     4    1
    4     4     5    1
    5     4     6    1
    6     4     7    1
    7     7     8    1
    8     7     9    1
    9     7    10    1
   10    10    11    1
   11    10    12    1
   12    10    13    1
   13    13    14    1
   14    13    15    1
   15    15    16    1
   16    15    17    1
   17     1    18    1
   18    15    18    1
   19    18    19    1
   20    18    20    1
   21    13    21    1
   22    21    22    1
@<TRIPOS>SUBSTRUCTURE
       1 MOL1            1 RESIDUE      1      MOL     
@<SCITEGIC>MOL_PROPERTY
VConf Rank
SciTegic.value.IntegerValue
943

@<SCITEGIC>MOL_PROPERTY
Conf_Id
SciTegic.value.IntegerValue
99

@<SCITEGIC>MOL_PROPERTY
Delta U+W
SciTegic.value.DoubleValue
-3.852

@<SCITEGIC>MOL_PROPERTY
U+W
SciTegic.value.DoubleValue
2.572

@<SCITEGIC>MOL_PROPERTY
Grad RMS
SciTegic.value.DoubleValue
0.000000

@<SCITEGIC>MOL_PROPERTY
U
SciTegic.value.DoubleValue
3.922

@<SCITEGIC>MOL_PROPERTY
W
SciTegic.value.DoubleValue
-1.350

@<SCITEGIC>MOL_PROPERTY
W(PB)
SciTegic.value.DoubleValue
-3.345

@<SCITEGIC>MOL_PROPERTY
W(SA)
SciTegic.value.DoubleValue
1.995

@<SCITEGIC>MOL_PROPERTY
Valence
SciTegic.value.DoubleValue
12.571

@<SCITEGIC>MOL_PROPERTY
Coulomb
SciTegic.value.DoubleValue
-10.581

@<SCITEGIC>MOL_PROPERTY
VdW
SciTegic.value.DoubleValue
1.932

@<SCITEGIC>MOL_PROPERTY
VdW6
SciTegic.value.DoubleValue
-10.483

@<SCITEGIC>MOL_PROPERTY
VdW12
SciTegic.value.DoubleValue
12.415

@<SCITEGIC>MOL_PROPERTY
Bond
SciTegic.value.DoubleValue
0.268

@<SCITEGIC>MOL_PROPERTY
Angle
SciTegic.value.DoubleValue
3.728

@<SCITEGIC>MOL_PROPERTY
Pdih
SciTegic.value.DoubleValue
8.575

@<SCITEGIC>MOL_PROPERTY
Idih
SciTegic.value.DoubleValue
0.000

@<SCITEGIC>MOL_PROPERTY
Tether
SciTegic.value.DoubleValue
0.000

@<TRIPOS>MOLECULE
guest-5_confgen4.mol2 : confsearch ligand conformer 944
          22          22           1
SMALL
USER_CHARGES
 
@<TRIPOS>ATOM
       1    C1      19.401914   21.111207   22.533693 C.3        1 MOL1        -0.1685
       2    H1      18.564613   21.814005   22.644569 H          1 MOL1         0.0832
       3    H2      20.228556   21.716008   22.137544 H          1 MOL1         0.0832
       4    C2      18.982982   20.029545   21.495254 C.3        1 MOL1        -0.1685
       5    H3      17.964418   20.264260   21.156542 H          1 MOL1         0.0832
       6    H4      19.606073   20.108441   20.594373 H          1 MOL1         0.0832
       7    C3      18.986292   18.564595   22.001870 C.3        1 MOL1        -0.1685
       8    H5      18.492713   17.936236   21.248034 H          1 MOL1         0.0832
       9    H6      18.350005   18.478970   22.891464 H          1 MOL1         0.0832
      10    C4      20.382420   17.948002   22.294223 C.3        1 MOL1        -0.1761
      11    H7      20.248128   17.109180   22.989266 H          1 MOL1         0.0832
      12    H8      20.763981   17.498685   21.367659 H          1 MOL1         0.0832
      13    C5      21.489609   18.875218   22.853296 C.3        1 MOL1         0.1218
      14    H9      22.304934   18.225046   23.201571 H          1 MOL1         0.0789
      15    C6      21.090482   19.775563   24.048377 C.3        1 MOL1        -0.1761
      16    H10     21.040105   19.152799   24.950801 H          1 MOL1         0.0832
      17    H11     21.917398   20.476213   24.225285 H          1 MOL1         0.0832
      18    C7      19.770842   20.589736   23.946037 C.3        1 MOL1        -0.1685
      19    H12     18.939498   20.000089   24.351934 H          1 MOL1         0.0832
      20    H13     19.854285   21.451208   24.622520 H          1 MOL1         0.0832
      21    O1      22.012135   19.677729   21.806308 O.3        1 MOL1        -0.5509
      22    H14     21.254485   20.233167   21.533568 H          1 MOL1         0.3779
@<TRIPOS>BOND
    1     1     2    1
    2     1     3    1
    3     1     4    1
    4     4     5    1
    5     4     6    1
    6     4     7    1
    7     7     8    1
    8     7     9    1
    9     7    10    1
   10    10    11    1
   11    10    12    1
   12    10    13    1
   13    13    14    1
   14    13    15    1
   15    15    16    1
   16    15    17    1
   17     1    18    1
   18    15    18    1
   19    18    19    1
   20    18    20    1
   21    13    21    1
   22    21    22    1
@<TRIPOS>SUBSTRUCTURE
       1 MOL1            1 RESIDUE      1      MOL     
@<SCITEGIC>MOL_PROPERTY
VConf Rank
SciTegic.value.IntegerValue
944

@<SCITEGIC>MOL_PROPERTY
Conf_Id
SciTegic.value.IntegerValue
98

@<SCITEGIC>MOL_PROPERTY
Delta U+W
SciTegic.value.DoubleValue
0.930

@<SCITEGIC>MOL_PROPERTY
U+W
SciTegic.value.DoubleValue
7.353

@<SCITEGIC>MOL_PROPERTY
Grad RMS
SciTegic.value.DoubleValue
0.000000

@<SCITEGIC>MOL_PROPERTY
U
SciTegic.value.DoubleValue
8.455

@<SCITEGIC>MOL_PROPERTY
W
SciTegic.value.DoubleValue
-1.102

@<SCITEGIC>MOL_PROPERTY
W(PB)
SciTegic.value.DoubleValue
-3.101

@<SCITEGIC>MOL_PROPERTY
W(SA)
SciTegic.value.DoubleValue
2.000

@<SCITEGIC>MOL_PROPERTY
Valence
SciTegic.value.DoubleValue
15.601

@<SCITEGIC>MOL_PROPERTY
Coulomb
SciTegic.value.DoubleValue
-10.573

@<SCITEGIC>MOL_PROPERTY
VdW
SciTegic.value.DoubleValue
3.427

@<SCITEGIC>MOL_PROPERTY
VdW6
SciTegic.value.DoubleValue
-11.360

@<SCITEGIC>MOL_PROPERTY
VdW12
SciTegic.value.DoubleValue
14.787

@<SCITEGIC>MOL_PROPERTY
Bond
SciTegic.value.DoubleValue
0.471

@<SCITEGIC>MOL_PROPERTY
Angle
SciTegic.value.DoubleValue
5.445

@<SCITEGIC>MOL_PROPERTY
Pdih
SciTegic.value.DoubleValue
9.685

@<SCITEGIC>MOL_PROPERTY
Idih
SciTegic.value.DoubleValue
0.000

@<SCITEGIC>MOL_PROPERTY
Tether
SciTegic.value.DoubleValue
0.000

@<TRIPOS>MOLECULE
guest-5_confgen4.mol2 : confsearch ligand conformer 945
          22          22           1
SMALL
USER_CHARGES
 
@<TRIPOS>ATOM
       1    C1      19.339750   20.892656   23.461994 C.3        1 MOL1        -0.1685
       2    H1      20.287102   20.972639   24.010545 H          1 MOL1         0.0832
       3    H2      18.739661   21.747145   23.803248 H          1 MOL1         0.0832
       4    C2      18.610261   19.585624   23.864079 C.3        1 MOL1        -0.1685
       5    H3      18.437520   19.623531   24.948329 H          1 MOL1         0.0832
       6    H4      17.612755   19.564968   23.404537 H          1 MOL1         0.0832
       7    C3      19.349988   18.258425   23.538514 C.3        1 MOL1        -0.1685
       8    H5      18.902837   17.785379   22.654603 H          1 MOL1         0.0832
       9    H6      19.165661   17.553142   24.360240 H          1 MOL1         0.0832
      10    C4      20.882144   18.393328   23.333554 C.3        1 MOL1        -0.1761
      11    H7      21.314643   18.923653   24.191066 H          1 MOL1         0.0832
      12    H8      21.324906   17.388871   23.371154 H          1 MOL1         0.0832
      13    C5      21.333303   19.094064   22.018527 C.3        1 MOL1         0.1218
      14    H9      22.116030   19.822767   22.274255 H          1 MOL1         0.0789
      15    C6      20.223410   19.833859   21.230429 C.3        1 MOL1        -0.1761
      16    H10     20.635973   20.177095   20.272808 H          1 MOL1         0.0832
      17    H11     19.428433   19.127885   20.961724 H          1 MOL1         0.0832
      18    C7      19.604548   21.059844   21.947210 C.3        1 MOL1        -0.1685
      19    H12     20.268329   21.924333   21.809850 H          1 MOL1         0.0832
      20    H13     18.663570   21.319431   21.443378 H          1 MOL1         0.0832
      21    O1      21.888719   18.111364   21.151930 O.3        1 MOL1        -0.5509
      22    H14     22.215711   18.585800   20.359361 H          1 MOL1         0.3779
@<TRIPOS>BOND
    1     1     2    1
    2     1     3    1
    3     1     4    1
    4     4     5    1
    5     4     6    1
    6     4     7    1
    7     7     8    1
    8     7     9    1
    9     7    10    1
   10    10    11    1
   11    10    12    1
   12    10    13    1
   13    13    14    1
   14    13    15    1
   15    15    16    1
   16    15    17    1
   17     1    18    1
   18    15    18    1
   19    18    19    1
   20    18    20    1
   21    13    21    1
   22    21    22    1
@<TRIPOS>SUBSTRUCTURE
       1 MOL1            1 RESIDUE      1      MOL     
@<SCITEGIC>MOL_PROPERTY
VConf Rank
SciTegic.value.IntegerValue
945

@<SCITEGIC>MOL_PROPERTY
Conf_Id
SciTegic.value.IntegerValue
141

@<SCITEGIC>MOL_PROPERTY
Delta U+W
SciTegic.value.DoubleValue
0.000

@<SCITEGIC>MOL_PROPERTY
U+W
SciTegic.value.DoubleValue
6.423

@<SCITEGIC>MOL_PROPERTY
Grad RMS
SciTegic.value.DoubleValue
0.000000

@<SCITEGIC>MOL_PROPERTY
U
SciTegic.value.DoubleValue
8.781

@<SCITEGIC>MOL_PROPERTY
W
SciTegic.value.DoubleValue
-2.358

@<SCITEGIC>MOL_PROPERTY
W(PB)
SciTegic.value.DoubleValue
-4.373

@<SCITEGIC>MOL_PROPERTY
W(SA)
SciTegic.value.DoubleValue
2.015

@<SCITEGIC>MOL_PROPERTY
Valence
SciTegic.value.DoubleValue
13.328

@<SCITEGIC>MOL_PROPERTY
Coulomb
SciTegic.value.DoubleValue
-8.387

@<SCITEGIC>MOL_PROPERTY
VdW
SciTegic.value.DoubleValue
3.840

@<SCITEGIC>MOL_PROPERTY
VdW6
SciTegic.value.DoubleValue
-9.744

@<SCITEGIC>MOL_PROPERTY
VdW12
SciTegic.value.DoubleValue
13.584

@<SCITEGIC>MOL_PROPERTY
Bond
SciTegic.value.DoubleValue
0.436

@<SCITEGIC>MOL_PROPERTY
Angle
SciTegic.value.DoubleValue
3.478

@<SCITEGIC>MOL_PROPERTY
Pdih
SciTegic.value.DoubleValue
9.415

@<SCITEGIC>MOL_PROPERTY
Idih
SciTegic.value.DoubleValue
0.000

@<SCITEGIC>MOL_PROPERTY
Tether
SciTegic.value.DoubleValue
0.000

@<TRIPOS>MOLECULE
guest-5_confgen4.mol2 : confsearch ligand conformer 946
          22          22           1
SMALL
USER_CHARGES
 
@<TRIPOS>ATOM
       1    C1      19.459146   20.024043   21.042571 C.3        1 MOL1        -0.1685
       2    H1      19.262979   21.046386   21.393201 H          1 MOL1         0.0832
       3    H2      19.243590   20.025875   19.965335 H          1 MOL1         0.0832
       4    C2      18.495818   19.014669   21.712509 C.3        1 MOL1        -0.1685
       5    H3      17.480100   19.197668   21.336100 H          1 MOL1         0.0832
       6    H4      18.754167   17.996413   21.391121 H          1 MOL1         0.0832
       7    C3      18.454510   19.068250   23.257098 C.3        1 MOL1        -0.1685
       8    H5      17.792316   18.265867   23.609954 H          1 MOL1         0.0832
       9    H6      17.983537   20.007787   23.577122 H          1 MOL1         0.0832
      10    C4      19.828884   18.916952   23.953793 C.3        1 MOL1        -0.1761
      11    H7      19.642238   18.739393   25.021089 H          1 MOL1         0.0832
      12    H8      20.354870   18.027411   23.583588 H          1 MOL1         0.0832
      13    C5      20.716199   20.172816   23.801788 C.3        1 MOL1         0.1218
      14    H9      20.061538   21.055789   23.776847 H          1 MOL1         0.0789
      15    C6      21.597345   20.186404   22.531869 C.3        1 MOL1        -0.1761
      16    H10     21.920546   21.221888   22.364049 H          1 MOL1         0.0832
      17    H11     22.514273   19.611865   22.719642 H          1 MOL1         0.0832
      18    C7      20.948199   19.650935   21.231128 C.3        1 MOL1        -0.1685
      19    H12     21.523832   20.039155   20.379802 H          1 MOL1         0.0832
      20    H13     21.059376   18.558940   21.187572 H          1 MOL1         0.0832
      21    O1      21.572536   20.268737   24.933470 O.3        1 MOL1        -0.5509
      22    H14     20.993060   20.335267   25.721124 H          1 MOL1         0.3779
@<TRIPOS>BOND
    1     1     2    1
    2     1     3    1
    3     1     4    1
    4     4     5    1
    5     4     6    1
    6     4     7    1
    7     7     8    1
    8     7     9    1
    9     7    10    1
   10    10    11    1
   11    10    12    1
   12    10    13    1
   13    13    14    1
   14    13    15    1
   15    15    16    1
   16    15    17    1
   17     1    18    1
   18    15    18    1
   19    18    19    1
   20    18    20    1
   21    13    21    1
   22    21    22    1
@<TRIPOS>SUBSTRUCTURE
       1 MOL1            1 RESIDUE      1      MOL     
@<SCITEGIC>MOL_PROPERTY
VConf Rank
SciTegic.value.IntegerValue
946

@<SCITEGIC>MOL_PROPERTY
Conf_Id
SciTegic.value.IntegerValue
144

@<SCITEGIC>MOL_PROPERTY
Delta U+W
SciTegic.value.DoubleValue
-3.291

@<SCITEGIC>MOL_PROPERTY
U+W
SciTegic.value.DoubleValue
3.132

@<SCITEGIC>MOL_PROPERTY
Grad RMS
SciTegic.value.DoubleValue
0.000000

@<SCITEGIC>MOL_PROPERTY
U
SciTegic.value.DoubleValue
5.411

@<SCITEGIC>MOL_PROPERTY
W
SciTegic.value.DoubleValue
-2.279

@<SCITEGIC>MOL_PROPERTY
W(PB)
SciTegic.value.DoubleValue
-4.300

@<SCITEGIC>MOL_PROPERTY
W(SA)
SciTegic.value.DoubleValue
2.021

@<SCITEGIC>MOL_PROPERTY
Valence
SciTegic.value.DoubleValue
11.909

@<SCITEGIC>MOL_PROPERTY
Coulomb
SciTegic.value.DoubleValue
-8.733

@<SCITEGIC>MOL_PROPERTY
VdW
SciTegic.value.DoubleValue
2.236

@<SCITEGIC>MOL_PROPERTY
VdW6
SciTegic.value.DoubleValue
-8.936

@<SCITEGIC>MOL_PROPERTY
VdW12
SciTegic.value.DoubleValue
11.172

@<SCITEGIC>MOL_PROPERTY
Bond
SciTegic.value.DoubleValue
0.223

@<SCITEGIC>MOL_PROPERTY
Angle
SciTegic.value.DoubleValue
2.457

@<SCITEGIC>MOL_PROPERTY
Pdih
SciTegic.value.DoubleValue
9.228

@<SCITEGIC>MOL_PROPERTY
Idih
SciTegic.value.DoubleValue
0.000

@<SCITEGIC>MOL_PROPERTY
Tether
SciTegic.value.DoubleValue
0.000

@<TRIPOS>MOLECULE
guest-5_confgen4.mol2 : confsearch ligand conformer 947
          22          22           1
SMALL
USER_CHARGES
 
@<TRIPOS>ATOM
       1    C1      21.549371   20.130727   22.372883 C.3        1 MOL1        -0.1685
       2    H1      22.424295   20.733967   22.094491 H          1 MOL1         0.0832
       3    H2      21.945698   19.195031   22.790111 H          1 MOL1         0.0832
       4    C2      20.728593   19.858295   21.090628 C.3        1 MOL1        -0.1685
       5    H3      20.085431   20.723022   20.877642 H          1 MOL1         0.0832
       6    H4      21.416326   19.787611   20.236798 H          1 MOL1         0.0832
       7    C3      19.872373   18.569150   21.120891 C.3        1 MOL1        -0.1685
       8    H5      20.504063   17.713971   20.844209 H          1 MOL1         0.0832
       9    H6      19.111327   18.645132   20.332187 H          1 MOL1         0.0832
      10    C4      19.175338   18.239094   22.463778 C.3        1 MOL1        -0.1761
      11    H7      18.367444   17.524508   22.256067 H          1 MOL1         0.0832
      12    H8      19.881507   17.708692   23.115616 H          1 MOL1         0.0832
      13    C5      18.602434   19.460113   23.217760 C.3        1 MOL1         0.1218
      14    H9      18.236854   20.201851   22.493436 H          1 MOL1         0.0789
      15    C6      19.640464   20.118314   24.154905 C.3        1 MOL1        -0.1761
      16    H10     19.115716   20.800795   24.836807 H          1 MOL1         0.0832
      17    H11     20.100292   19.349686   24.789614 H          1 MOL1         0.0832
      18    C7      20.754804   20.919807   23.441063 C.3        1 MOL1        -0.1685
      19    H12     20.320022   21.818415   22.982376 H          1 MOL1         0.0832
      20    H13     21.457824   21.283205   24.202963 H          1 MOL1         0.0832
      21    O1      17.511152   19.020876   24.015499 O.3        1 MOL1        -0.5509
      22    H14     17.874743   18.363363   24.643701 H          1 MOL1         0.3779
@<TRIPOS>BOND
    1     1     2    1
    2     1     3    1
    3     1     4    1
    4     4     5    1
    5     4     6    1
    6     4     7    1
    7     7     8    1
    8     7     9    1
    9     7    10    1
   10    10    11    1
   11    10    12    1
   12    10    13    1
   13    13    14    1
   14    13    15    1
   15    15    16    1
   16    15    17    1
   17     1    18    1
   18    15    18    1
   19    18    19    1
   20    18    20    1
   21    13    21    1
   22    21    22    1
@<TRIPOS>SUBSTRUCTURE
       1 MOL1            1 RESIDUE      1      MOL     
@<SCITEGIC>MOL_PROPERTY
VConf Rank
SciTegic.value.IntegerValue
947

@<SCITEGIC>MOL_PROPERTY
Conf_Id
SciTegic.value.IntegerValue
76

@<SCITEGIC>MOL_PROPERTY
Delta U+W
SciTegic.value.DoubleValue
-3.175

@<SCITEGIC>MOL_PROPERTY
U+W
SciTegic.value.DoubleValue
3.248

@<SCITEGIC>MOL_PROPERTY
Grad RMS
SciTegic.value.DoubleValue
0.000000

@<SCITEGIC>MOL_PROPERTY
U
SciTegic.value.DoubleValue
5.336

@<SCITEGIC>MOL_PROPERTY
W
SciTegic.value.DoubleValue
-2.088

@<SCITEGIC>MOL_PROPERTY
W(PB)
SciTegic.value.DoubleValue
-4.098

@<SCITEGIC>MOL_PROPERTY
W(SA)
SciTegic.value.DoubleValue
2.010

@<SCITEGIC>MOL_PROPERTY
Valence
SciTegic.value.DoubleValue
12.390

@<SCITEGIC>MOL_PROPERTY
Coulomb
SciTegic.value.DoubleValue
-9.270

@<SCITEGIC>MOL_PROPERTY
VdW
SciTegic.value.DoubleValue
2.216

@<SCITEGIC>MOL_PROPERTY
VdW6
SciTegic.value.DoubleValue
-8.967

@<SCITEGIC>MOL_PROPERTY
VdW12
SciTegic.value.DoubleValue
11.183

@<SCITEGIC>MOL_PROPERTY
Bond
SciTegic.value.DoubleValue
0.218

@<SCITEGIC>MOL_PROPERTY
Angle
SciTegic.value.DoubleValue
2.426

@<SCITEGIC>MOL_PROPERTY
Pdih
SciTegic.value.DoubleValue
9.745

@<SCITEGIC>MOL_PROPERTY
Idih
SciTegic.value.DoubleValue
0.000

@<SCITEGIC>MOL_PROPERTY
Tether
SciTegic.value.DoubleValue
0.000

@<TRIPOS>MOLECULE
guest-5_confgen4.mol2 : confsearch ligand conformer 948
          22          22           1
SMALL
USER_CHARGES
 
@<TRIPOS>ATOM
       1    C1      19.349990   19.703465   24.413827 C.3        1 MOL1        -0.1685
       2    H1      18.584938   19.061469   24.871339 H          1 MOL1         0.0832
       3    H2      19.667365   20.398081   25.203509 H          1 MOL1         0.0832
       4    C2      18.685303   20.510847   23.273213 C.3        1 MOL1        -0.1685
       5    H3      17.937440   19.884535   22.768324 H          1 MOL1         0.0832
       6    H4      18.119309   21.335963   23.726665 H          1 MOL1         0.0832
       7    C3      19.663895   21.089612   22.224914 C.3        1 MOL1        -0.1685
       8    H5      20.594958   21.427616   22.700006 H          1 MOL1         0.0832
       9    H6      19.203290   21.984948   21.786157 H          1 MOL1         0.0832
      10    C4      19.962099   20.098756   21.071069 C.3        1 MOL1        -0.1761
      11    H7      19.014544   19.723507   20.663834 H          1 MOL1         0.0832
      12    H8      20.437904   20.650544   20.249756 H          1 MOL1         0.0832
      13    C5      20.864974   18.894111   21.421420 C.3        1 MOL1         0.1218
      14    H9      20.825793   18.208279   20.562818 H          1 MOL1         0.0789
      15    C6      20.430956   18.086249   22.670209 C.3        1 MOL1        -0.1761
      16    H10     19.400740   17.729423   22.542898 H          1 MOL1         0.0832
      17    H11     21.053572   17.183315   22.713187 H          1 MOL1         0.0832
      18    C7      20.569387   18.835785   24.020857 C.3        1 MOL1        -0.1685
      19    H12     20.729961   18.098830   24.819316 H          1 MOL1         0.0832
      20    H13     21.473109   19.459237   24.014865 H          1 MOL1         0.0832
      21    O1      22.208634   19.341736   21.570521 O.3        1 MOL1        -0.5509
      22    H14     22.734058   18.561498   21.841522 H          1 MOL1         0.3779
@<TRIPOS>BOND
    1     1     2    1
    2     1     3    1
    3     1     4    1
    4     4     5    1
    5     4     6    1
    6     4     7    1
    7     7     8    1
    8     7     9    1
    9     7    10    1
   10    10    11    1
   11    10    12    1
   12    10    13    1
   13    13    14    1
   14    13    15    1
   15    15    16    1
   16    15    17    1
   17     1    18    1
   18    15    18    1
   19    18    19    1
   20    18    20    1
   21    13    21    1
   22    21    22    1
@<TRIPOS>SUBSTRUCTURE
       1 MOL1            1 RESIDUE      1      MOL     
@<SCITEGIC>MOL_PROPERTY
VConf Rank
SciTegic.value.IntegerValue
948

@<SCITEGIC>MOL_PROPERTY
Conf_Id
SciTegic.value.IntegerValue
95

@<SCITEGIC>MOL_PROPERTY
Delta U+W
SciTegic.value.DoubleValue
-2.289

@<SCITEGIC>MOL_PROPERTY
U+W
SciTegic.value.DoubleValue
4.134

@<SCITEGIC>MOL_PROPERTY
Grad RMS
SciTegic.value.DoubleValue
0.000000

@<SCITEGIC>MOL_PROPERTY
U
SciTegic.value.DoubleValue
6.373

@<SCITEGIC>MOL_PROPERTY
W
SciTegic.value.DoubleValue
-2.240

@<SCITEGIC>MOL_PROPERTY
W(PB)
SciTegic.value.DoubleValue
-4.254

@<SCITEGIC>MOL_PROPERTY
W(SA)
SciTegic.value.DoubleValue
2.015

@<SCITEGIC>MOL_PROPERTY
Valence
SciTegic.value.DoubleValue
12.093

@<SCITEGIC>MOL_PROPERTY
Coulomb
SciTegic.value.DoubleValue
-8.058

@<SCITEGIC>MOL_PROPERTY
VdW
SciTegic.value.DoubleValue
2.339

@<SCITEGIC>MOL_PROPERTY
VdW6
SciTegic.value.DoubleValue
-9.683

@<SCITEGIC>MOL_PROPERTY
VdW12
SciTegic.value.DoubleValue
12.022

@<SCITEGIC>MOL_PROPERTY
Bond
SciTegic.value.DoubleValue
0.268

@<SCITEGIC>MOL_PROPERTY
Angle
SciTegic.value.DoubleValue
3.005

@<SCITEGIC>MOL_PROPERTY
Pdih
SciTegic.value.DoubleValue
8.820

@<SCITEGIC>MOL_PROPERTY
Idih
SciTegic.value.DoubleValue
0.000

@<SCITEGIC>MOL_PROPERTY
Tether
SciTegic.value.DoubleValue
0.000

@<TRIPOS>MOLECULE
guest-5_confgen4.mol2 : confsearch ligand conformer 949
          22          22           1
SMALL
USER_CHARGES
 
@<TRIPOS>ATOM
       1    C1      19.339804   18.364283   21.458827 C.3        1 MOL1        -0.1685
       2    H1      18.993148   17.340842   21.656699 H          1 MOL1         0.0832
       3    H2      19.162362   18.537257   20.388601 H          1 MOL1         0.0832
       4    C2      20.862241   18.420447   21.729676 C.3        1 MOL1        -0.1685
       5    H3      21.106414   17.772062   22.582000 H          1 MOL1         0.0832
       6    H4      21.376984   17.976596   20.866636 H          1 MOL1         0.0832
       7    C3      21.431551   19.836305   21.980169 C.3        1 MOL1        -0.1685
       8    H5      20.937923   20.577977   21.337460 H          1 MOL1         0.0832
       9    H6      22.489886   19.834378   21.686315 H          1 MOL1         0.0832
      10    C4      21.355858   20.255766   23.470012 C.3        1 MOL1        -0.1761
      11    H7      21.779738   19.455412   24.090219 H          1 MOL1         0.0832
      12    H8      22.012111   21.122051   23.624493 H          1 MOL1         0.0832
      13    C5      19.950283   20.607263   24.009033 C.3        1 MOL1         0.1218
      14    H9      20.044499   20.707901   25.099948 H          1 MOL1         0.0789
      15    C6      18.858429   19.540518   23.743997 C.3        1 MOL1        -0.1761
      16    H10     19.163099   18.577786   24.173896 H          1 MOL1         0.0832
      17    H11     17.963402   19.847492   24.300344 H          1 MOL1         0.0832
      18    C7      18.461725   19.358403   22.255743 C.3        1 MOL1        -0.1685
      19    H12     17.423271   19.003998   22.208547 H          1 MOL1         0.0832
      20    H13     18.458791   20.332184   21.748435 H          1 MOL1         0.0832
      21    O1      19.543166   21.865951   23.480968 O.3        1 MOL1        -0.5509
      22    H14     20.271650   22.494944   23.659475 H          1 MOL1         0.3779
@<TRIPOS>BOND
    1     1     2    1
    2     1     3    1
    3     1     4    1
    4     4     5    1
    5     4     6    1
    6     4     7    1
    7     7     8    1
    8     7     9    1
    9     7    10    1
   10    10    11    1
   11    10    12    1
   12    10    13    1
   13    13    14    1
   14    13    15    1
   15    15    16    1
   16    15    17    1
   17     1    18    1
   18    15    18    1
   19    18    19    1
   20    18    20    1
   21    13    21    1
   22    21    22    1
@<TRIPOS>SUBSTRUCTURE
       1 MOL1            1 RESIDUE      1      MOL     
@<SCITEGIC>MOL_PROPERTY
VConf Rank
SciTegic.value.IntegerValue
949

@<SCITEGIC>MOL_PROPERTY
Conf_Id
SciTegic.value.IntegerValue
41

@<SCITEGIC>MOL_PROPERTY
Delta U+W
SciTegic.value.DoubleValue
-2.114

@<SCITEGIC>MOL_PROPERTY
U+W
SciTegic.value.DoubleValue
4.310

@<SCITEGIC>MOL_PROPERTY
Grad RMS
SciTegic.value.DoubleValue
0.000000

@<SCITEGIC>MOL_PROPERTY
U
SciTegic.value.DoubleValue
6.598

@<SCITEGIC>MOL_PROPERTY
W
SciTegic.value.DoubleValue
-2.289

@<SCITEGIC>MOL_PROPERTY
W(PB)
SciTegic.value.DoubleValue
-4.294

@<SCITEGIC>MOL_PROPERTY
W(SA)
SciTegic.value.DoubleValue
2.005

@<SCITEGIC>MOL_PROPERTY
Valence
SciTegic.value.DoubleValue
12.082

@<SCITEGIC>MOL_PROPERTY
Coulomb
SciTegic.value.DoubleValue
-7.801

@<SCITEGIC>MOL_PROPERTY
VdW
SciTegic.value.DoubleValue
2.317

@<SCITEGIC>MOL_PROPERTY
VdW6
SciTegic.value.DoubleValue
-9.658

@<SCITEGIC>MOL_PROPERTY
VdW12
SciTegic.value.DoubleValue
11.975

@<SCITEGIC>MOL_PROPERTY
Bond
SciTegic.value.DoubleValue
0.267

@<SCITEGIC>MOL_PROPERTY
Angle
SciTegic.value.DoubleValue
3.051

@<SCITEGIC>MOL_PROPERTY
Pdih
SciTegic.value.DoubleValue
8.764

@<SCITEGIC>MOL_PROPERTY
Idih
SciTegic.value.DoubleValue
0.000

@<SCITEGIC>MOL_PROPERTY
Tether
SciTegic.value.DoubleValue
0.000

@<TRIPOS>MOLECULE
guest-5_confgen4.mol2 : confsearch ligand conformer 950
          22          22           1
SMALL
USER_CHARGES
 
@<TRIPOS>ATOM
       1    C1      21.471694   19.602587   23.637707 C.3        1 MOL1        -0.1685
       2    H1      22.371637   19.384525   24.228555 H          1 MOL1         0.0832
       3    H2      21.562245   20.648366   23.313173 H          1 MOL1         0.0832
       4    C2      20.244522   19.420542   24.558737 C.3        1 MOL1        -0.1685
       5    H3      20.136019   18.359393   24.820983 H          1 MOL1         0.0832
       6    H4      20.434446   19.946463   25.504198 H          1 MOL1         0.0832
       7    C3      18.915470   19.944895   23.972313 C.3        1 MOL1        -0.1685
       8    H5      18.951245   21.040592   23.908613 H          1 MOL1         0.0832
       9    H6      18.116047   19.718162   24.690396 H          1 MOL1         0.0832
      10    C4      18.519675   19.345543   22.595611 C.3        1 MOL1        -0.1761
      11    H7      18.558868   18.249622   22.636576 H          1 MOL1         0.0832
      12    H8      17.467082   19.597767   22.413911 H          1 MOL1         0.0832
      13    C5      19.328604   19.855721   21.375207 C.3        1 MOL1         0.1218
      14    H9      18.742037   19.602770   20.480090 H          1 MOL1         0.0789
      15    C6      20.724796   19.212002   21.171709 C.3        1 MOL1        -0.1761
      16    H10     20.616349   18.387322   20.455326 H          1 MOL1         0.0832
      17    H11     21.384679   19.937456   20.678006 H          1 MOL1         0.0832
      18    C7      21.450407   18.652107   22.420271 C.3        1 MOL1        -0.1685
      19    H12     21.007899   17.688956   22.708267 H          1 MOL1         0.0832
      20    H13     22.486311   18.425903   22.133191 H          1 MOL1         0.0832
      21    O1      19.456448   21.274376   21.419871 O.3        1 MOL1        -0.5509
      22    H14     19.937407   21.540557   20.610096 H          1 MOL1         0.3779
@<TRIPOS>BOND
    1     1     2    1
    2     1     3    1
    3     1     4    1
    4     4     5    1
    5     4     6    1
    6     4     7    1
    7     7     8    1
    8     7     9    1
    9     7    10    1
   10    10    11    1
   11    10    12    1
   12    10    13    1
   13    13    14    1
   14    13    15    1
   15    15    16    1
   16    15    17    1
   17     1    18    1
   18    15    18    1
   19    18    19    1
   20    18    20    1
   21    13    21    1
   22    21    22    1
@<TRIPOS>SUBSTRUCTURE
       1 MOL1            1 RESIDUE      1      MOL     
@<SCITEGIC>MOL_PROPERTY
VConf Rank
SciTegic.value.IntegerValue
950

@<SCITEGIC>MOL_PROPERTY
Conf_Id
SciTegic.value.IntegerValue
104

@<SCITEGIC>MOL_PROPERTY
Delta U+W
SciTegic.value.DoubleValue
-1.172

@<SCITEGIC>MOL_PROPERTY
U+W
SciTegic.value.DoubleValue
5.252

@<SCITEGIC>MOL_PROPERTY
Grad RMS
SciTegic.value.DoubleValue
0.000000

@<SCITEGIC>MOL_PROPERTY
U
SciTegic.value.DoubleValue
7.482

@<SCITEGIC>MOL_PROPERTY
W
SciTegic.value.DoubleValue
-2.230

@<SCITEGIC>MOL_PROPERTY
W(PB)
SciTegic.value.DoubleValue
-4.220

@<SCITEGIC>MOL_PROPERTY
W(SA)
SciTegic.value.DoubleValue
1.990

@<SCITEGIC>MOL_PROPERTY
Valence
SciTegic.value.DoubleValue
12.309

@<SCITEGIC>MOL_PROPERTY
Coulomb
SciTegic.value.DoubleValue
-7.084

@<SCITEGIC>MOL_PROPERTY
VdW
SciTegic.value.DoubleValue
2.258

@<SCITEGIC>MOL_PROPERTY
VdW6
SciTegic.value.DoubleValue
-9.770

@<SCITEGIC>MOL_PROPERTY
VdW12
SciTegic.value.DoubleValue
12.028

@<SCITEGIC>MOL_PROPERTY
Bond
SciTegic.value.DoubleValue
0.284

@<SCITEGIC>MOL_PROPERTY
Angle
SciTegic.value.DoubleValue
3.491

@<SCITEGIC>MOL_PROPERTY
Pdih
SciTegic.value.DoubleValue
8.535

@<SCITEGIC>MOL_PROPERTY
Idih
SciTegic.value.DoubleValue
0.000

@<SCITEGIC>MOL_PROPERTY
Tether
SciTegic.value.DoubleValue
0.000

@<TRIPOS>MOLECULE
guest-5_confgen4.mol2 : confsearch ligand conformer 951
          22          22           1
SMALL
USER_CHARGES
 
@<TRIPOS>ATOM
       1    C1      19.718312   20.485054   24.003542 C.3        1 MOL1        -0.1685
       2    H1      20.533900   20.041873   24.590815 H          1 MOL1         0.0832
       3    H2      19.210396   21.190036   24.675824 H          1 MOL1         0.0832
       4    C2      18.691466   19.408339   23.584310 C.3        1 MOL1        -0.1685
       5    H3      18.034646   19.198692   24.439813 H          1 MOL1         0.0832
       6    H4      18.028643   19.819278   22.811566 H          1 MOL1         0.0832
       7    C3      19.288884   18.060502   23.106710 C.3        1 MOL1        -0.1685
       8    H5      18.562955   17.575193   22.439764 H          1 MOL1         0.0832
       9    H6      19.378115   17.393050   23.974739 H          1 MOL1         0.0832
      10    C4      20.674056   18.104504   22.406305 C.3        1 MOL1        -0.1761
      11    H7      21.458732   18.196511   23.168390 H          1 MOL1         0.0832
      12    H8      20.845608   17.128948   21.933166 H          1 MOL1         0.0832
      13    C5      20.888688   19.201029   21.337873 C.3        1 MOL1         0.1218
      14    H9      21.708507   18.866455   20.686077 H          1 MOL1         0.0789
      15    C6      21.324412   20.553669   21.945146 C.3        1 MOL1        -0.1761
      16    H10     22.229030   20.394090   22.546195 H          1 MOL1         0.0832
      17    H11     21.628473   21.215421   21.123637 H          1 MOL1         0.0832
      18    C7      20.273147   21.295058   22.807686 C.3        1 MOL1        -0.1685
      19    H12     20.742144   22.208565   23.197891 H          1 MOL1         0.0832
      20    H13     19.444648   21.637001   22.172752 H          1 MOL1         0.0832
      21    O1      19.717005   19.370787   20.555243 O.3        1 MOL1        -0.5509
      22    H14     19.021941   19.583465   21.209415 H          1 MOL1         0.3779
@<TRIPOS>BOND
    1     1     2    1
    2     1     3    1
    3     1     4    1
    4     4     5    1
    5     4     6    1
    6     4     7    1
    7     7     8    1
    8     7     9    1
    9     7    10    1
   10    10    11    1
   11    10    12    1
   12    10    13    1
   13    13    14    1
   14    13    15    1
   15    15    16    1
   16    15    17    1
   17     1    18    1
   18    15    18    1
   19    18    19    1
   20    18    20    1
   21    13    21    1
   22    21    22    1
@<TRIPOS>SUBSTRUCTURE
       1 MOL1            1 RESIDUE      1      MOL     
@<SCITEGIC>MOL_PROPERTY
VConf Rank
SciTegic.value.IntegerValue
951

@<SCITEGIC>MOL_PROPERTY
Conf_Id
SciTegic.value.IntegerValue
99

@<SCITEGIC>MOL_PROPERTY
Delta U+W
SciTegic.value.DoubleValue
-3.852

@<SCITEGIC>MOL_PROPERTY
U+W
SciTegic.value.DoubleValue
2.572

@<SCITEGIC>MOL_PROPERTY
Grad RMS
SciTegic.value.DoubleValue
0.000000

@<SCITEGIC>MOL_PROPERTY
U
SciTegic.value.DoubleValue
3.922

@<SCITEGIC>MOL_PROPERTY
W
SciTegic.value.DoubleValue
-1.350

@<SCITEGIC>MOL_PROPERTY
W(PB)
SciTegic.value.DoubleValue
-3.345

@<SCITEGIC>MOL_PROPERTY
W(SA)
SciTegic.value.DoubleValue
1.995

@<SCITEGIC>MOL_PROPERTY
Valence
SciTegic.value.DoubleValue
12.571

@<SCITEGIC>MOL_PROPERTY
Coulomb
SciTegic.value.DoubleValue
-10.581

@<SCITEGIC>MOL_PROPERTY
VdW
SciTegic.value.DoubleValue
1.932

@<SCITEGIC>MOL_PROPERTY
VdW6
SciTegic.value.DoubleValue
-10.483

@<SCITEGIC>MOL_PROPERTY
VdW12
SciTegic.value.DoubleValue
12.415

@<SCITEGIC>MOL_PROPERTY
Bond
SciTegic.value.DoubleValue
0.268

@<SCITEGIC>MOL_PROPERTY
Angle
SciTegic.value.DoubleValue
3.728

@<SCITEGIC>MOL_PROPERTY
Pdih
SciTegic.value.DoubleValue
8.575

@<SCITEGIC>MOL_PROPERTY
Idih
SciTegic.value.DoubleValue
0.000

@<SCITEGIC>MOL_PROPERTY
Tether
SciTegic.value.DoubleValue
0.000

@<TRIPOS>MOLECULE
guest-5_confgen4.mol2 : confsearch ligand conformer 952
          22          22           1
SMALL
USER_CHARGES
 
@<TRIPOS>ATOM
       1    C1      21.705246   19.372665   22.947231 C.3        1 MOL1        -0.1685
       2    H1      22.727224   19.757156   23.069782 H          1 MOL1         0.0832
       3    H2      21.792815   18.286780   23.085944 H          1 MOL1         0.0832
       4    C2      21.245822   19.692566   21.494494 C.3        1 MOL1        -0.1685
       5    H3      22.069008   20.215374   20.988206 H          1 MOL1         0.0832
       6    H4      21.109916   18.762188   20.927062 H          1 MOL1         0.0832
       7    C3      19.975884   20.571457   21.361981 C.3        1 MOL1        -0.1685
       8    H5      19.876131   20.880047   20.312435 H          1 MOL1         0.0832
       9    H6      20.115743   21.509735   21.913019 H          1 MOL1         0.0832
      10    C4      18.638821   19.905655   21.790699 C.3        1 MOL1        -0.1761
      11    H7      17.919953   20.700818   22.026679 H          1 MOL1         0.0832
      12    H8      18.217724   19.382465   20.921823 H          1 MOL1         0.0832
      13    C5      18.665617   18.903233   22.970780 C.3        1 MOL1         0.1218
      14    H9      17.620571   18.724653   23.261922 H          1 MOL1         0.0789
      15    C6      19.414985   19.364795   24.244967 C.3        1 MOL1        -0.1761
      16    H10     18.787759   20.095858   24.771157 H          1 MOL1         0.0832
      17    H11     19.482433   18.501277   24.920084 H          1 MOL1         0.0832
      18    C7      20.835932   19.972342   24.081885 C.3        1 MOL1        -0.1685
      19    H12     20.761596   21.059652   23.956196 H          1 MOL1         0.0832
      20    H13     21.368962   19.840321   25.033292 H          1 MOL1         0.0832
      21    O1      19.195290   17.662926   22.529954 O.3        1 MOL1        -0.5509
      22    H14     20.118440   17.873939   22.284594 H          1 MOL1         0.3779
@<TRIPOS>BOND
    1     1     2    1
    2     1     3    1
    3     1     4    1
    4     4     5    1
    5     4     6    1
    6     4     7    1
    7     7     8    1
    8     7     9    1
    9     7    10    1
   10    10    11    1
   11    10    12    1
   12    10    13    1
   13    13    14    1
   14    13    15    1
   15    15    16    1
   16    15    17    1
   17     1    18    1
   18    15    18    1
   19    18    19    1
   20    18    20    1
   21    13    21    1
   22    21    22    1
@<TRIPOS>SUBSTRUCTURE
       1 MOL1            1 RESIDUE      1      MOL     
@<SCITEGIC>MOL_PROPERTY
VConf Rank
SciTegic.value.IntegerValue
952

@<SCITEGIC>MOL_PROPERTY
Conf_Id
SciTegic.value.IntegerValue
98

@<SCITEGIC>MOL_PROPERTY
Delta U+W
SciTegic.value.DoubleValue
0.930

@<SCITEGIC>MOL_PROPERTY
U+W
SciTegic.value.DoubleValue
7.353

@<SCITEGIC>MOL_PROPERTY
Grad RMS
SciTegic.value.DoubleValue
0.000000

@<SCITEGIC>MOL_PROPERTY
U
SciTegic.value.DoubleValue
8.455

@<SCITEGIC>MOL_PROPERTY
W
SciTegic.value.DoubleValue
-1.102

@<SCITEGIC>MOL_PROPERTY
W(PB)
SciTegic.value.DoubleValue
-3.101

@<SCITEGIC>MOL_PROPERTY
W(SA)
SciTegic.value.DoubleValue
2.000

@<SCITEGIC>MOL_PROPERTY
Valence
SciTegic.value.DoubleValue
15.601

@<SCITEGIC>MOL_PROPERTY
Coulomb
SciTegic.value.DoubleValue
-10.573

@<SCITEGIC>MOL_PROPERTY
VdW
SciTegic.value.DoubleValue
3.427

@<SCITEGIC>MOL_PROPERTY
VdW6
SciTegic.value.DoubleValue
-11.360

@<SCITEGIC>MOL_PROPERTY
VdW12
SciTegic.value.DoubleValue
14.787

@<SCITEGIC>MOL_PROPERTY
Bond
SciTegic.value.DoubleValue
0.471

@<SCITEGIC>MOL_PROPERTY
Angle
SciTegic.value.DoubleValue
5.445

@<SCITEGIC>MOL_PROPERTY
Pdih
SciTegic.value.DoubleValue
9.685

@<SCITEGIC>MOL_PROPERTY
Idih
SciTegic.value.DoubleValue
0.000

@<SCITEGIC>MOL_PROPERTY
Tether
SciTegic.value.DoubleValue
0.000

@<TRIPOS>MOLECULE
guest-5_confgen4.mol2 : confsearch ligand conformer 953
          22          22           1
SMALL
USER_CHARGES
 
@<TRIPOS>ATOM
       1    C1      19.857636   20.655972   23.947435 C.3        1 MOL1        -0.1685
       2    H1      19.111062   21.177331   23.334580 H          1 MOL1         0.0832
       3    H2      19.880202   21.205680   24.898236 H          1 MOL1         0.0832
       4    C2      21.252380   20.766355   23.280603 C.3        1 MOL1        -0.1685
       5    H3      21.491679   21.834677   23.189512 H          1 MOL1         0.0832
       6    H4      22.014728   20.346925   23.951072 H          1 MOL1         0.0832
       7    C3      21.395112   20.117487   21.875881 C.3        1 MOL1        -0.1685
       8    H5      21.930877   19.162656   21.955044 H          1 MOL1         0.0832
       9    H6      22.047717   20.758180   21.267397 H          1 MOL1         0.0832
      10    C4      20.061051   19.900357   21.113748 C.3        1 MOL1        -0.1761
      11    H7      19.500664   20.843317   21.093281 H          1 MOL1         0.0832
      12    H8      20.295319   19.689103   20.061665 H          1 MOL1         0.0832
      13    C5      19.140776   18.770510   21.661844 C.3        1 MOL1         0.1218
      14    H9      18.114988   19.163369   21.711718 H          1 MOL1         0.0789
      15    C6      19.512668   18.212146   23.058333 C.3        1 MOL1        -0.1761
      16    H10     18.872409   17.347830   23.277616 H          1 MOL1         0.0832
      17    H11     20.533579   17.812352   23.036084 H          1 MOL1         0.0832
      18    C7      19.375990   19.213877   24.232072 C.3        1 MOL1        -0.1685
      19    H12     18.322220   19.260030   24.539078 H          1 MOL1         0.0832
      20    H13     19.924353   18.814742   25.096168 H          1 MOL1         0.0832
      21    O1      19.169596   17.681762   20.745889 O.3        1 MOL1        -0.5509
      22    H14     18.540248   17.011145   21.084082 H          1 MOL1         0.3779
@<TRIPOS>BOND
    1     1     2    1
    2     1     3    1
    3     1     4    1
    4     4     5    1
    5     4     6    1
    6     4     7    1
    7     7     8    1
    8     7     9    1
    9     7    10    1
   10    10    11    1
   11    10    12    1
   12    10    13    1
   13    13    14    1
   14    13    15    1
   15    15    16    1
   16    15    17    1
   17     1    18    1
   18    15    18    1
   19    18    19    1
   20    18    20    1
   21    13    21    1
   22    21    22    1
@<TRIPOS>SUBSTRUCTURE
       1 MOL1            1 RESIDUE      1      MOL     
@<SCITEGIC>MOL_PROPERTY
VConf Rank
SciTegic.value.IntegerValue
953

@<SCITEGIC>MOL_PROPERTY
Conf_Id
SciTegic.value.IntegerValue
141

@<SCITEGIC>MOL_PROPERTY
Delta U+W
SciTegic.value.DoubleValue
0.000

@<SCITEGIC>MOL_PROPERTY
U+W
SciTegic.value.DoubleValue
6.423

@<SCITEGIC>MOL_PROPERTY
Grad RMS
SciTegic.value.DoubleValue
0.000000

@<SCITEGIC>MOL_PROPERTY
U
SciTegic.value.DoubleValue
8.781

@<SCITEGIC>MOL_PROPERTY
W
SciTegic.value.DoubleValue
-2.358

@<SCITEGIC>MOL_PROPERTY
W(PB)
SciTegic.value.DoubleValue
-4.373

@<SCITEGIC>MOL_PROPERTY
W(SA)
SciTegic.value.DoubleValue
2.015

@<SCITEGIC>MOL_PROPERTY
Valence
SciTegic.value.DoubleValue
13.328

@<SCITEGIC>MOL_PROPERTY
Coulomb
SciTegic.value.DoubleValue
-8.387

@<SCITEGIC>MOL_PROPERTY
VdW
SciTegic.value.DoubleValue
3.840

@<SCITEGIC>MOL_PROPERTY
VdW6
SciTegic.value.DoubleValue
-9.744

@<SCITEGIC>MOL_PROPERTY
VdW12
SciTegic.value.DoubleValue
13.584

@<SCITEGIC>MOL_PROPERTY
Bond
SciTegic.value.DoubleValue
0.436

@<SCITEGIC>MOL_PROPERTY
Angle
SciTegic.value.DoubleValue
3.478

@<SCITEGIC>MOL_PROPERTY
Pdih
SciTegic.value.DoubleValue
9.415

@<SCITEGIC>MOL_PROPERTY
Idih
SciTegic.value.DoubleValue
0.000

@<SCITEGIC>MOL_PROPERTY
Tether
SciTegic.value.DoubleValue
0.000

@<TRIPOS>MOLECULE
guest-5_confgen4.mol2 : confsearch ligand conformer 954
          22          22           1
SMALL
USER_CHARGES
 
@<TRIPOS>ATOM
       1    C1      20.962246   20.946822   23.221864 C.3        1 MOL1        -0.1685
       2    H1      21.835569   20.280602   23.213821 H          1 MOL1         0.0832
       3    H2      21.338606   21.937342   23.511914 H          1 MOL1         0.0832
       4    C2      19.936666   20.502192   24.292446 C.3        1 MOL1        -0.1685
       5    H3      20.370450   20.677031   25.286487 H          1 MOL1         0.0832
       6    H4      19.049134   21.147206   24.236562 H          1 MOL1         0.0832
       7    C3      19.498651   19.021696   24.211178 C.3        1 MOL1        -0.1685
       8    H5      18.726386   18.850760   24.973553 H          1 MOL1         0.0832
       9    H6      20.342556   18.375717   24.489556 H          1 MOL1         0.0832
      10    C4      18.942030   18.578832   22.835960 C.3        1 MOL1        -0.1761
      11    H7      18.460364   17.601592   22.971915 H          1 MOL1         0.0832
      12    H8      18.153338   19.263791   22.498626 H          1 MOL1         0.0832
      13    C5      20.043572   18.449884   21.760040 C.3        1 MOL1         0.1218
      14    H9      20.970463   18.124354   22.253747 H          1 MOL1         0.0789
      15    C6      20.339352   19.753928   20.984617 C.3        1 MOL1        -0.1761
      16    H10     21.318242   19.637443   20.501861 H          1 MOL1         0.0832
      17    H11     19.612780   19.864164   20.168497 H          1 MOL1         0.0832
      18    C7      20.344256   21.065541   21.809052 C.3        1 MOL1        -0.1685
      19    H12     20.899918   21.822624   21.239062 H          1 MOL1         0.0832
      20    H13     19.319325   21.452389   21.890136 H          1 MOL1         0.0832
      21    O1      19.651880   17.457134   20.819698 O.3        1 MOL1        -0.5509
      22    H14     19.543274   16.621465   21.320177 H          1 MOL1         0.3779
@<TRIPOS>BOND
    1     1     2    1
    2     1     3    1
    3     1     4    1
    4     4     5    1
    5     4     6    1
    6     4     7    1
    7     7     8    1
    8     7     9    1
    9     7    10    1
   10    10    11    1
   11    10    12    1
   12    10    13    1
   13    13    14    1
   14    13    15    1
   15    15    16    1
   16    15    17    1
   17     1    18    1
   18    15    18    1
   19    18    19    1
   20    18    20    1
   21    13    21    1
   22    21    22    1
@<TRIPOS>SUBSTRUCTURE
       1 MOL1            1 RESIDUE      1      MOL     
@<SCITEGIC>MOL_PROPERTY
VConf Rank
SciTegic.value.IntegerValue
954

@<SCITEGIC>MOL_PROPERTY
Conf_Id
SciTegic.value.IntegerValue
144

@<SCITEGIC>MOL_PROPERTY
Delta U+W
SciTegic.value.DoubleValue
-3.291

@<SCITEGIC>MOL_PROPERTY
U+W
SciTegic.value.DoubleValue
3.132

@<SCITEGIC>MOL_PROPERTY
Grad RMS
SciTegic.value.DoubleValue
0.000000

@<SCITEGIC>MOL_PROPERTY
U
SciTegic.value.DoubleValue
5.411

@<SCITEGIC>MOL_PROPERTY
W
SciTegic.value.DoubleValue
-2.279

@<SCITEGIC>MOL_PROPERTY
W(PB)
SciTegic.value.DoubleValue
-4.300

@<SCITEGIC>MOL_PROPERTY
W(SA)
SciTegic.value.DoubleValue
2.021

@<SCITEGIC>MOL_PROPERTY
Valence
SciTegic.value.DoubleValue
11.909

@<SCITEGIC>MOL_PROPERTY
Coulomb
SciTegic.value.DoubleValue
-8.733

@<SCITEGIC>MOL_PROPERTY
VdW
SciTegic.value.DoubleValue
2.236

@<SCITEGIC>MOL_PROPERTY
VdW6
SciTegic.value.DoubleValue
-8.936

@<SCITEGIC>MOL_PROPERTY
VdW12
SciTegic.value.DoubleValue
11.172

@<SCITEGIC>MOL_PROPERTY
Bond
SciTegic.value.DoubleValue
0.223

@<SCITEGIC>MOL_PROPERTY
Angle
SciTegic.value.DoubleValue
2.457

@<SCITEGIC>MOL_PROPERTY
Pdih
SciTegic.value.DoubleValue
9.228

@<SCITEGIC>MOL_PROPERTY
Idih
SciTegic.value.DoubleValue
0.000

@<SCITEGIC>MOL_PROPERTY
Tether
SciTegic.value.DoubleValue
0.000

@<TRIPOS>MOLECULE
guest-5_confgen4.mol2 : confsearch ligand conformer 955
          22          22           1
SMALL
USER_CHARGES
 
@<TRIPOS>ATOM
       1    C1      19.995381   18.997532   24.293911 C.3        1 MOL1        -0.1685
       2    H1      19.756216   18.555186   25.270651 H          1 MOL1         0.0832
       3    H2      21.024346   19.373612   24.374387 H          1 MOL1         0.0832
       4    C2      19.003548   20.156310   24.037832 C.3        1 MOL1        -0.1685
       5    H3      18.062139   19.751096   23.642453 H          1 MOL1         0.0832
       6    H4      18.742098   20.619286   24.999235 H          1 MOL1         0.0832
       7    C3      19.524516   21.270659   23.098289 C.3        1 MOL1        -0.1685
       8    H5      20.129298   21.977298   23.682938 H          1 MOL1         0.0832
       9    H6      18.660675   21.845385   22.737061 H          1 MOL1         0.0832
      10    C4      20.365185   20.807022   21.883193 C.3        1 MOL1        -0.1761
      11    H7      20.377534   21.625935   21.151278 H          1 MOL1         0.0832
      12    H8      21.408438   20.672519   22.196921 H          1 MOL1         0.0832
      13    C5      19.866033   19.513468   21.201168 C.3        1 MOL1         0.1218
      14    H9      18.768647   19.471121   21.250360 H          1 MOL1         0.0789
      15    C6      20.463309   18.238721   21.839337 C.3        1 MOL1        -0.1761
      16    H10     20.279907   17.389851   21.167092 H          1 MOL1         0.0832
      17    H11     21.554146   18.340409   21.908773 H          1 MOL1         0.0832
      18    C7      19.898131   17.875109   23.232920 C.3        1 MOL1        -0.1685
      19    H12     18.850698   17.560106   23.130047 H          1 MOL1         0.0832
      20    H13     20.440205   16.994586   23.603897 H          1 MOL1         0.0832
      21    O1      20.263518   19.545693   19.836918 O.3        1 MOL1        -0.5509
      22    H14     21.242104   19.584723   19.834766 H          1 MOL1         0.3779
@<TRIPOS>BOND
    1     1     2    1
    2     1     3    1
    3     1     4    1
    4     4     5    1
    5     4     6    1
    6     4     7    1
    7     7     8    1
    8     7     9    1
    9     7    10    1
   10    10    11    1
   11    10    12    1
   12    10    13    1
   13    13    14    1
   14    13    15    1
   15    15    16    1
   16    15    17    1
   17     1    18    1
   18    15    18    1
   19    18    19    1
   20    18    20    1
   21    13    21    1
   22    21    22    1
@<TRIPOS>SUBSTRUCTURE
       1 MOL1            1 RESIDUE      1      MOL     
@<SCITEGIC>MOL_PROPERTY
VConf Rank
SciTegic.value.IntegerValue
955

@<SCITEGIC>MOL_PROPERTY
Conf_Id
SciTegic.value.IntegerValue
76

@<SCITEGIC>MOL_PROPERTY
Delta U+W
SciTegic.value.DoubleValue
-3.175

@<SCITEGIC>MOL_PROPERTY
U+W
SciTegic.value.DoubleValue
3.248

@<SCITEGIC>MOL_PROPERTY
Grad RMS
SciTegic.value.DoubleValue
0.000000

@<SCITEGIC>MOL_PROPERTY
U
SciTegic.value.DoubleValue
5.336

@<SCITEGIC>MOL_PROPERTY
W
SciTegic.value.DoubleValue
-2.088

@<SCITEGIC>MOL_PROPERTY
W(PB)
SciTegic.value.DoubleValue
-4.098

@<SCITEGIC>MOL_PROPERTY
W(SA)
SciTegic.value.DoubleValue
2.010

@<SCITEGIC>MOL_PROPERTY
Valence
SciTegic.value.DoubleValue
12.390

@<SCITEGIC>MOL_PROPERTY
Coulomb
SciTegic.value.DoubleValue
-9.270

@<SCITEGIC>MOL_PROPERTY
VdW
SciTegic.value.DoubleValue
2.216

@<SCITEGIC>MOL_PROPERTY
VdW6
SciTegic.value.DoubleValue
-8.967

@<SCITEGIC>MOL_PROPERTY
VdW12
SciTegic.value.DoubleValue
11.183

@<SCITEGIC>MOL_PROPERTY
Bond
SciTegic.value.DoubleValue
0.218

@<SCITEGIC>MOL_PROPERTY
Angle
SciTegic.value.DoubleValue
2.426

@<SCITEGIC>MOL_PROPERTY
Pdih
SciTegic.value.DoubleValue
9.745

@<SCITEGIC>MOL_PROPERTY
Idih
SciTegic.value.DoubleValue
0.000

@<SCITEGIC>MOL_PROPERTY
Tether
SciTegic.value.DoubleValue
0.000

@<TRIPOS>MOLECULE
guest-5_confgen4.mol2 : confsearch ligand conformer 956
          22          22           1
SMALL
USER_CHARGES
 
@<TRIPOS>ATOM
       1    C1      21.664979   20.260479   23.377132 C.3        1 MOL1        -0.1685
       2    H1      21.802023   20.784575   24.332812 H          1 MOL1         0.0832
       3    H2      22.670168   20.159849   22.945526 H          1 MOL1         0.0832
       4    C2      20.809303   21.157935   22.451354 C.3        1 MOL1        -0.1685
       5    H3      20.052908   21.684917   23.048545 H          1 MOL1         0.0832
       6    H4      21.460411   21.943021   22.043332 H          1 MOL1         0.0832
       7    C3      20.118302   20.420082   21.281041 C.3        1 MOL1        -0.1685
       8    H5      20.766164   19.630714   20.876062 H          1 MOL1         0.0832
       9    H6      19.968565   21.139810   20.465038 H          1 MOL1         0.0832
      10    C4      18.730117   19.849450   21.667568 C.3        1 MOL1        -0.1761
      11    H7      18.131508   20.642062   22.134413 H          1 MOL1         0.0832
      12    H8      18.194558   19.578365   20.748273 H          1 MOL1         0.0832
      13    C5      18.733949   18.615235   22.598050 C.3        1 MOL1         0.1218
      14    H9      17.693687   18.454864   22.916220 H          1 MOL1         0.0789
      15    C6      19.586328   18.761539   23.883559 C.3        1 MOL1        -0.1761
      16    H10     19.248025   19.634270   24.456943 H          1 MOL1         0.0832
      17    H11     19.378582   17.891242   24.519335 H          1 MOL1         0.0832
      18    C7      21.118032   18.839641   23.653341 C.3        1 MOL1        -0.1685
      19    H12     21.629670   18.448649   24.543158 H          1 MOL1         0.0832
      20    H13     21.410284   18.171125   22.832905 H          1 MOL1         0.0832
      21    O1      19.153286   17.471775   21.860027 O.3        1 MOL1        -0.5509
      22    H14     19.191373   16.728210   22.495594 H          1 MOL1         0.3779
@<TRIPOS>BOND
    1     1     2    1
    2     1     3    1
    3     1     4    1
    4     4     5    1
    5     4     6    1
    6     4     7    1
    7     7     8    1
    8     7     9    1
    9     7    10    1
   10    10    11    1
   11    10    12    1
   12    10    13    1
   13    13    14    1
   14    13    15    1
   15    15    16    1
   16    15    17    1
   17     1    18    1
   18    15    18    1
   19    18    19    1
   20    18    20    1
   21    13    21    1
   22    21    22    1
@<TRIPOS>SUBSTRUCTURE
       1 MOL1            1 RESIDUE      1      MOL     
@<SCITEGIC>MOL_PROPERTY
VConf Rank
SciTegic.value.IntegerValue
956

@<SCITEGIC>MOL_PROPERTY
Conf_Id
SciTegic.value.IntegerValue
95

@<SCITEGIC>MOL_PROPERTY
Delta U+W
SciTegic.value.DoubleValue
-2.289

@<SCITEGIC>MOL_PROPERTY
U+W
SciTegic.value.DoubleValue
4.134

@<SCITEGIC>MOL_PROPERTY
Grad RMS
SciTegic.value.DoubleValue
0.000000

@<SCITEGIC>MOL_PROPERTY
U
SciTegic.value.DoubleValue
6.373

@<SCITEGIC>MOL_PROPERTY
W
SciTegic.value.DoubleValue
-2.240

@<SCITEGIC>MOL_PROPERTY
W(PB)
SciTegic.value.DoubleValue
-4.254

@<SCITEGIC>MOL_PROPERTY
W(SA)
SciTegic.value.DoubleValue
2.015

@<SCITEGIC>MOL_PROPERTY
Valence
SciTegic.value.DoubleValue
12.093

@<SCITEGIC>MOL_PROPERTY
Coulomb
SciTegic.value.DoubleValue
-8.058

@<SCITEGIC>MOL_PROPERTY
VdW
SciTegic.value.DoubleValue
2.339

@<SCITEGIC>MOL_PROPERTY
VdW6
SciTegic.value.DoubleValue
-9.683

@<SCITEGIC>MOL_PROPERTY
VdW12
SciTegic.value.DoubleValue
12.022

@<SCITEGIC>MOL_PROPERTY
Bond
SciTegic.value.DoubleValue
0.268

@<SCITEGIC>MOL_PROPERTY
Angle
SciTegic.value.DoubleValue
3.005

@<SCITEGIC>MOL_PROPERTY
Pdih
SciTegic.value.DoubleValue
8.820

@<SCITEGIC>MOL_PROPERTY
Idih
SciTegic.value.DoubleValue
0.000

@<SCITEGIC>MOL_PROPERTY
Tether
SciTegic.value.DoubleValue
0.000

@<TRIPOS>MOLECULE
guest-5_confgen4.mol2 : confsearch ligand conformer 957
          22          22           1
SMALL
USER_CHARGES
 
@<TRIPOS>ATOM
       1    C1      20.280554   21.496789   22.378717 C.3        1 MOL1        -0.1685
       2    H1      20.507675   21.991833   21.424724 H          1 MOL1         0.0832
       3    H2      20.174303   22.304530   23.115640 H          1 MOL1         0.0832
       4    C2      21.493426   20.618829   22.769170 C.3        1 MOL1        -0.1685
       5    H3      21.935030   20.181293   21.863615 H          1 MOL1         0.0832
       6    H4      22.268651   21.276766   23.185035 H          1 MOL1         0.0832
       7    C3      21.188705   19.495763   23.787690 C.3        1 MOL1        -0.1685
       8    H5      20.462167   19.833199   24.539420 H          1 MOL1         0.0832
       9    H6      22.114046   19.273560   24.336139 H          1 MOL1         0.0832
      10    C4      20.715945   18.185504   23.108698 C.3        1 MOL1        -0.1761
      11    H7      21.417932   17.923384   22.306574 H          1 MOL1         0.0832
      12    H8      20.787556   17.367230   23.836902 H          1 MOL1         0.0832
      13    C5      19.283331   18.196720   22.527986 C.3        1 MOL1         0.1218
      14    H9      19.172129   17.274824   21.939052 H          1 MOL1         0.0789
      15    C6      18.966602   19.381440   21.581172 C.3        1 MOL1        -0.1761
      16    H10     19.678592   19.394287   20.746072 H          1 MOL1         0.0832
      17    H11     17.983537   19.185277   21.134035 H          1 MOL1         0.0832
      18    C7      18.917197   20.774385   22.261395 C.3        1 MOL1        -0.1685
      19    H12     18.240236   21.422506   21.688787 H          1 MOL1         0.0832
      20    H13     18.462077   20.687662   23.256867 H          1 MOL1         0.0832
      21    O1      18.340833   18.157687   23.595256 O.3        1 MOL1        -0.5509
      22    H14     18.595812   17.406348   24.168546 H          1 MOL1         0.3779
@<TRIPOS>BOND
    1     1     2    1
    2     1     3    1
    3     1     4    1
    4     4     5    1
    5     4     6    1
    6     4     7    1
    7     7     8    1
    8     7     9    1
    9     7    10    1
   10    10    11    1
   11    10    12    1
   12    10    13    1
   13    13    14    1
   14    13    15    1
   15    15    16    1
   16    15    17    1
   17     1    18    1
   18    15    18    1
   19    18    19    1
   20    18    20    1
   21    13    21    1
   22    21    22    1
@<TRIPOS>SUBSTRUCTURE
       1 MOL1            1 RESIDUE      1      MOL     
@<SCITEGIC>MOL_PROPERTY
VConf Rank
SciTegic.value.IntegerValue
957

@<SCITEGIC>MOL_PROPERTY
Conf_Id
SciTegic.value.IntegerValue
41

@<SCITEGIC>MOL_PROPERTY
Delta U+W
SciTegic.value.DoubleValue
-2.114

@<SCITEGIC>MOL_PROPERTY
U+W
SciTegic.value.DoubleValue
4.310

@<SCITEGIC>MOL_PROPERTY
Grad RMS
SciTegic.value.DoubleValue
0.000000

@<SCITEGIC>MOL_PROPERTY
U
SciTegic.value.DoubleValue
6.598

@<SCITEGIC>MOL_PROPERTY
W
SciTegic.value.DoubleValue
-2.289

@<SCITEGIC>MOL_PROPERTY
W(PB)
SciTegic.value.DoubleValue
-4.294

@<SCITEGIC>MOL_PROPERTY
W(SA)
SciTegic.value.DoubleValue
2.005

@<SCITEGIC>MOL_PROPERTY
Valence
SciTegic.value.DoubleValue
12.082

@<SCITEGIC>MOL_PROPERTY
Coulomb
SciTegic.value.DoubleValue
-7.801

@<SCITEGIC>MOL_PROPERTY
VdW
SciTegic.value.DoubleValue
2.317

@<SCITEGIC>MOL_PROPERTY
VdW6
SciTegic.value.DoubleValue
-9.658

@<SCITEGIC>MOL_PROPERTY
VdW12
SciTegic.value.DoubleValue
11.975

@<SCITEGIC>MOL_PROPERTY
Bond
SciTegic.value.DoubleValue
0.267

@<SCITEGIC>MOL_PROPERTY
Angle
SciTegic.value.DoubleValue
3.051

@<SCITEGIC>MOL_PROPERTY
Pdih
SciTegic.value.DoubleValue
8.764

@<SCITEGIC>MOL_PROPERTY
Idih
SciTegic.value.DoubleValue
0.000

@<SCITEGIC>MOL_PROPERTY
Tether
SciTegic.value.DoubleValue
0.000

@<TRIPOS>MOLECULE
guest-5_confgen4.mol2 : confsearch ligand conformer 958
          22          22           1
SMALL
USER_CHARGES
 
@<TRIPOS>ATOM
       1    C1      19.398789   19.496847   24.232709 C.3        1 MOL1        -0.1685
       2    H1      18.758757   19.334356   25.110493 H          1 MOL1         0.0832
       3    H2      20.395657   19.747766   24.620612 H          1 MOL1         0.0832
       4    C2      18.811174   20.679222   23.430159 C.3        1 MOL1        -0.1685
       5    H3      17.843930   20.386561   22.999613 H          1 MOL1         0.0832
       6    H4      18.594847   21.501850   24.125173 H          1 MOL1         0.0832
       7    C3      19.730291   21.219406   22.312730 C.3        1 MOL1        -0.1685
       8    H5      20.606327   21.704931   22.762969 H          1 MOL1         0.0832
       9    H6      19.189876   22.017648   21.786529 H          1 MOL1         0.0832
      10    C4      20.185952   20.166363   21.266470 C.3        1 MOL1        -0.1761
      11    H7      19.315895   19.626245   20.872096 H          1 MOL1         0.0832
      12    H8      20.609954   20.709195   20.411988 H          1 MOL1         0.0832
      13    C5      21.260495   19.155756   21.744029 C.3        1 MOL1         0.1218
      14    H9      21.697737   18.709331   20.839152 H          1 MOL1         0.0789
      15    C6      20.742543   17.971933   22.601599 C.3        1 MOL1        -0.1761
      16    H10     20.575967   17.117071   21.933372 H          1 MOL1         0.0832
      17    H11     21.538442   17.651248   23.286564 H          1 MOL1         0.0832
      18    C7      19.443394   18.185665   23.417338 C.3        1 MOL1        -0.1685
      19    H12     18.571661   18.132240   22.751273 H          1 MOL1         0.0832
      20    H13     19.337901   17.338493   24.108604 H          1 MOL1         0.0832
      21    O1      22.305303   19.830745   22.439505 O.3        1 MOL1        -0.5509
      22    H14     22.968995   19.152759   22.679832 H          1 MOL1         0.3779
@<TRIPOS>BOND
    1     1     2    1
    2     1     3    1
    3     1     4    1
    4     4     5    1
    5     4     6    1
    6     4     7    1
    7     7     8    1
    8     7     9    1
    9     7    10    1
   10    10    11    1
   11    10    12    1
   12    10    13    1
   13    13    14    1
   14    13    15    1
   15    15    16    1
   16    15    17    1
   17     1    18    1
   18    15    18    1
   19    18    19    1
   20    18    20    1
   21    13    21    1
   22    21    22    1
@<TRIPOS>SUBSTRUCTURE
       1 MOL1            1 RESIDUE      1      MOL     
@<SCITEGIC>MOL_PROPERTY
VConf Rank
SciTegic.value.IntegerValue
958

@<SCITEGIC>MOL_PROPERTY
Conf_Id
SciTegic.value.IntegerValue
104

@<SCITEGIC>MOL_PROPERTY
Delta U+W
SciTegic.value.DoubleValue
-1.172

@<SCITEGIC>MOL_PROPERTY
U+W
SciTegic.value.DoubleValue
5.252

@<SCITEGIC>MOL_PROPERTY
Grad RMS
SciTegic.value.DoubleValue
0.000000

@<SCITEGIC>MOL_PROPERTY
U
SciTegic.value.DoubleValue
7.482

@<SCITEGIC>MOL_PROPERTY
W
SciTegic.value.DoubleValue
-2.230

@<SCITEGIC>MOL_PROPERTY
W(PB)
SciTegic.value.DoubleValue
-4.220

@<SCITEGIC>MOL_PROPERTY
W(SA)
SciTegic.value.DoubleValue
1.990

@<SCITEGIC>MOL_PROPERTY
Valence
SciTegic.value.DoubleValue
12.309

@<SCITEGIC>MOL_PROPERTY
Coulomb
SciTegic.value.DoubleValue
-7.084

@<SCITEGIC>MOL_PROPERTY
VdW
SciTegic.value.DoubleValue
2.258

@<SCITEGIC>MOL_PROPERTY
VdW6
SciTegic.value.DoubleValue
-9.770

@<SCITEGIC>MOL_PROPERTY
VdW12
SciTegic.value.DoubleValue
12.028

@<SCITEGIC>MOL_PROPERTY
Bond
SciTegic.value.DoubleValue
0.284

@<SCITEGIC>MOL_PROPERTY
Angle
SciTegic.value.DoubleValue
3.491

@<SCITEGIC>MOL_PROPERTY
Pdih
SciTegic.value.DoubleValue
8.535

@<SCITEGIC>MOL_PROPERTY
Idih
SciTegic.value.DoubleValue
0.000

@<SCITEGIC>MOL_PROPERTY
Tether
SciTegic.value.DoubleValue
0.000

@<TRIPOS>MOLECULE
guest-5_confgen4.mol2 : confsearch ligand conformer 959
          22          22           1
SMALL
USER_CHARGES
 
@<TRIPOS>ATOM
       1    C1      18.771866   19.086423   21.782605 C.3        1 MOL1        -0.1685
       2    H1      18.183680   18.822086   22.671789 H          1 MOL1         0.0832
       3    H2      18.145435   18.827520   20.918028 H          1 MOL1         0.0832
       4    C2      20.062201   18.239047   21.702146 C.3        1 MOL1        -0.1685
       5    H3      19.805801   17.247281   21.304770 H          1 MOL1         0.0832
       6    H4      20.739049   18.677113   20.956954 H          1 MOL1         0.0832
       7    C3      20.813462   18.030885   23.041531 C.3        1 MOL1        -0.1685
       8    H5      21.872238   17.837858   22.820063 H          1 MOL1         0.0832
       9    H6      20.441159   17.109058   23.509030 H          1 MOL1         0.0832
      10    C4      20.712406   19.164653   24.097732 C.3        1 MOL1        -0.1761
      11    H7      19.746371   19.089462   24.613559 H          1 MOL1         0.0832
      12    H8      21.467298   18.974882   24.871764 H          1 MOL1         0.0832
      13    C5      20.894717   20.614871   23.594135 C.3        1 MOL1         0.1218
      14    H9      21.189009   21.226745   24.458937 H          1 MOL1         0.0789
      15    C6      19.588573   21.225900   23.038347 C.3        1 MOL1        -0.1761
      16    H10     18.813418   21.162786   23.813081 H          1 MOL1         0.0832
      17    H11     19.755441   22.298474   22.874076 H          1 MOL1         0.0832
      18    C7      19.039667   20.609350   21.727866 C.3        1 MOL1        -0.1685
      19    H12     18.095755   21.117008   21.486985 H          1 MOL1         0.0832
      20    H13     19.718616   20.838641   20.895441 H          1 MOL1         0.0832
      21    O1      21.919735   20.677384   22.614543 O.3        1 MOL1        -0.5509
      22    H14     21.627815   20.050090   21.923478 H          1 MOL1         0.3779
@<TRIPOS>BOND
    1     1     2    1
    2     1     3    1
    3     1     4    1
    4     4     5    1
    5     4     6    1
    6     4     7    1
    7     7     8    1
    8     7     9    1
    9     7    10    1
   10    10    11    1
   11    10    12    1
   12    10    13    1
   13    13    14    1
   14    13    15    1
   15    15    16    1
   16    15    17    1
   17     1    18    1
   18    15    18    1
   19    18    19    1
   20    18    20    1
   21    13    21    1
   22    21    22    1
@<TRIPOS>SUBSTRUCTURE
       1 MOL1            1 RESIDUE      1      MOL     
@<SCITEGIC>MOL_PROPERTY
VConf Rank
SciTegic.value.IntegerValue
959

@<SCITEGIC>MOL_PROPERTY
Conf_Id
SciTegic.value.IntegerValue
99

@<SCITEGIC>MOL_PROPERTY
Delta U+W
SciTegic.value.DoubleValue
-3.852

@<SCITEGIC>MOL_PROPERTY
U+W
SciTegic.value.DoubleValue
2.572

@<SCITEGIC>MOL_PROPERTY
Grad RMS
SciTegic.value.DoubleValue
0.000000

@<SCITEGIC>MOL_PROPERTY
U
SciTegic.value.DoubleValue
3.922

@<SCITEGIC>MOL_PROPERTY
W
SciTegic.value.DoubleValue
-1.350

@<SCITEGIC>MOL_PROPERTY
W(PB)
SciTegic.value.DoubleValue
-3.345

@<SCITEGIC>MOL_PROPERTY
W(SA)
SciTegic.value.DoubleValue
1.995

@<SCITEGIC>MOL_PROPERTY
Valence
SciTegic.value.DoubleValue
12.571

@<SCITEGIC>MOL_PROPERTY
Coulomb
SciTegic.value.DoubleValue
-10.581

@<SCITEGIC>MOL_PROPERTY
VdW
SciTegic.value.DoubleValue
1.932

@<SCITEGIC>MOL_PROPERTY
VdW6
SciTegic.value.DoubleValue
-10.483

@<SCITEGIC>MOL_PROPERTY
VdW12
SciTegic.value.DoubleValue
12.415

@<SCITEGIC>MOL_PROPERTY
Bond
SciTegic.value.DoubleValue
0.268

@<SCITEGIC>MOL_PROPERTY
Angle
SciTegic.value.DoubleValue
3.728

@<SCITEGIC>MOL_PROPERTY
Pdih
SciTegic.value.DoubleValue
8.575

@<SCITEGIC>MOL_PROPERTY
Idih
SciTegic.value.DoubleValue
0.000

@<SCITEGIC>MOL_PROPERTY
Tether
SciTegic.value.DoubleValue
0.000

@<TRIPOS>MOLECULE
guest-5_confgen4.mol2 : confsearch ligand conformer 960
          22          22           1
SMALL
USER_CHARGES
 
@<TRIPOS>ATOM
       1    C1      19.467847   20.485531   23.947379 C.3        1 MOL1        -0.1685
       2    H1      19.563471   21.263577   24.717308 H          1 MOL1         0.0832
       3    H2      18.443447   20.104763   24.055431 H          1 MOL1         0.0832
       4    C2      20.494977   19.362025   24.273859 C.3        1 MOL1        -0.1685
       5    H3      21.035059   19.653706   25.185190 H          1 MOL1         0.0832
       6    H4      19.969879   18.435071   24.540470 H          1 MOL1         0.0832
       7    C3      21.547852   19.064598   23.175797 C.3        1 MOL1        -0.1685
       8    H5      22.315819   18.404739   23.601872 H          1 MOL1         0.0832
       9    H6      22.086641   19.985448   22.920236 H          1 MOL1         0.0832
      10    C4      21.010817   18.394456   21.880678 C.3        1 MOL1        -0.1761
      11    H7      21.723188   18.594925   21.070072 H          1 MOL1         0.0832
      12    H8      21.029428   17.305364   22.020418 H          1 MOL1         0.0832
      13    C5      19.592135   18.777819   21.392279 C.3        1 MOL1         0.1218
      14    H9      19.490044   18.387276   20.369621 H          1 MOL1         0.0789
      15    C6      19.275211   20.292322   21.329166 C.3        1 MOL1        -0.1761
      16    H10     19.782250   20.717072   20.453243 H          1 MOL1         0.0832
      17    H11     18.201836   20.397280   21.122173 H          1 MOL1         0.0832
      18    C7      19.624663   21.167955   22.564460 C.3        1 MOL1        -0.1685
      19    H12     20.641962   21.565360   22.460827 H          1 MOL1         0.0832
      20    H13     18.977906   22.055576   22.540840 H          1 MOL1         0.0832
      21    O1      18.620160   18.120887   22.190368 O.3        1 MOL1        -0.5509
      22    H14     18.751277   18.500151   23.082500 H          1 MOL1         0.3779
@<TRIPOS>BOND
    1     1     2    1
    2     1     3    1
    3     1     4    1
    4     4     5    1
    5     4     6    1
    6     4     7    1
    7     7     8    1
    8     7     9    1
    9     7    10    1
   10    10    11    1
   11    10    12    1
   12    10    13    1
   13    13    14    1
   14    13    15    1
   15    15    16    1
   16    15    17    1
   17     1    18    1
   18    15    18    1
   19    18    19    1
   20    18    20    1
   21    13    21    1
   22    21    22    1
@<TRIPOS>SUBSTRUCTURE
       1 MOL1            1 RESIDUE      1      MOL     
@<SCITEGIC>MOL_PROPERTY
VConf Rank
SciTegic.value.IntegerValue
960

@<SCITEGIC>MOL_PROPERTY
Conf_Id
SciTegic.value.IntegerValue
98

@<SCITEGIC>MOL_PROPERTY
Delta U+W
SciTegic.value.DoubleValue
0.930

@<SCITEGIC>MOL_PROPERTY
U+W
SciTegic.value.DoubleValue
7.353

@<SCITEGIC>MOL_PROPERTY
Grad RMS
SciTegic.value.DoubleValue
0.000000

@<SCITEGIC>MOL_PROPERTY
U
SciTegic.value.DoubleValue
8.455

@<SCITEGIC>MOL_PROPERTY
W
SciTegic.value.DoubleValue
-1.102

@<SCITEGIC>MOL_PROPERTY
W(PB)
SciTegic.value.DoubleValue
-3.101

@<SCITEGIC>MOL_PROPERTY
W(SA)
SciTegic.value.DoubleValue
2.000

@<SCITEGIC>MOL_PROPERTY
Valence
SciTegic.value.DoubleValue
15.601

@<SCITEGIC>MOL_PROPERTY
Coulomb
SciTegic.value.DoubleValue
-10.573

@<SCITEGIC>MOL_PROPERTY
VdW
SciTegic.value.DoubleValue
3.427

@<SCITEGIC>MOL_PROPERTY
VdW6
SciTegic.value.DoubleValue
-11.360

@<SCITEGIC>MOL_PROPERTY
VdW12
SciTegic.value.DoubleValue
14.787

@<SCITEGIC>MOL_PROPERTY
Bond
SciTegic.value.DoubleValue
0.471

@<SCITEGIC>MOL_PROPERTY
Angle
SciTegic.value.DoubleValue
5.445

@<SCITEGIC>MOL_PROPERTY
Pdih
SciTegic.value.DoubleValue
9.685

@<SCITEGIC>MOL_PROPERTY
Idih
SciTegic.value.DoubleValue
0.000

@<SCITEGIC>MOL_PROPERTY
Tether
SciTegic.value.DoubleValue
0.000

@<TRIPOS>MOLECULE
guest-5_confgen4.mol2 : confsearch ligand conformer 961
          22          22           1
SMALL
USER_CHARGES
 
@<TRIPOS>ATOM
       1    C1      19.294490   19.643140   21.098722 C.3        1 MOL1        -0.1685
       2    H1      19.824788   20.596437   20.977103 H          1 MOL1         0.0832
       3    H2      18.778863   19.479708   20.142620 H          1 MOL1         0.0832
       4    C2      18.229686   19.774927   22.217197 C.3        1 MOL1        -0.1685
       5    H3      17.538993   20.577069   21.923282 H          1 MOL1         0.0832
       6    H4      17.623155   18.859967   22.257105 H          1 MOL1         0.0832
       7    C3      18.764904   20.095191   23.640438 C.3        1 MOL1        -0.1685
       8    H5      18.750850   19.189433   24.260454 H          1 MOL1         0.0832
       9    H6      18.057545   20.781118   24.126011 H          1 MOL1         0.0832
      10    C4      20.180564   20.729083   23.682850 C.3        1 MOL1        -0.1761
      11    H7      20.206642   21.596710   23.011904 H          1 MOL1         0.0832
      12    H8      20.342563   21.144392   24.686673 H          1 MOL1         0.0832
      13    C5      21.362519   19.777562   23.334336 C.3        1 MOL1         0.1218
      14    H9      22.026942   20.304829   22.634623 H          1 MOL1         0.0789
      15    C6      20.973339   18.418734   22.699999 C.3        1 MOL1        -0.1761
      16    H10     21.872902   17.795286   22.615414 H          1 MOL1         0.0832
      17    H11     20.309562   17.870800   23.379527 H          1 MOL1         0.0832
      18    C7      20.320846   18.503092   21.297521 C.3        1 MOL1        -0.1685
      19    H12     21.111659   18.620188   20.544050 H          1 MOL1         0.0832
      20    H13     19.837435   17.540993   21.079916 H          1 MOL1         0.0832
      21    O1      22.084277   19.499294   24.528826 O.3        1 MOL1        -0.5509
      22    H14     22.852730   18.947848   24.272767 H          1 MOL1         0.3779
@<TRIPOS>BOND
    1     1     2    1
    2     1     3    1
    3     1     4    1
    4     4     5    1
    5     4     6    1
    6     4     7    1
    7     7     8    1
    8     7     9    1
    9     7    10    1
   10    10    11    1
   11    10    12    1
   12    10    13    1
   13    13    14    1
   14    13    15    1
   15    15    16    1
   16    15    17    1
   17     1    18    1
   18    15    18    1
   19    18    19    1
   20    18    20    1
   21    13    21    1
   22    21    22    1
@<TRIPOS>SUBSTRUCTURE
       1 MOL1            1 RESIDUE      1      MOL     
@<SCITEGIC>MOL_PROPERTY
VConf Rank
SciTegic.value.IntegerValue
961

@<SCITEGIC>MOL_PROPERTY
Conf_Id
SciTegic.value.IntegerValue
141

@<SCITEGIC>MOL_PROPERTY
Delta U+W
SciTegic.value.DoubleValue
0.000

@<SCITEGIC>MOL_PROPERTY
U+W
SciTegic.value.DoubleValue
6.423

@<SCITEGIC>MOL_PROPERTY
Grad RMS
SciTegic.value.DoubleValue
0.000000

@<SCITEGIC>MOL_PROPERTY
U
SciTegic.value.DoubleValue
8.781

@<SCITEGIC>MOL_PROPERTY
W
SciTegic.value.DoubleValue
-2.358

@<SCITEGIC>MOL_PROPERTY
W(PB)
SciTegic.value.DoubleValue
-4.373

@<SCITEGIC>MOL_PROPERTY
W(SA)
SciTegic.value.DoubleValue
2.015

@<SCITEGIC>MOL_PROPERTY
Valence
SciTegic.value.DoubleValue
13.328

@<SCITEGIC>MOL_PROPERTY
Coulomb
SciTegic.value.DoubleValue
-8.387

@<SCITEGIC>MOL_PROPERTY
VdW
SciTegic.value.DoubleValue
3.840

@<SCITEGIC>MOL_PROPERTY
VdW6
SciTegic.value.DoubleValue
-9.744

@<SCITEGIC>MOL_PROPERTY
VdW12
SciTegic.value.DoubleValue
13.584

@<SCITEGIC>MOL_PROPERTY
Bond
SciTegic.value.DoubleValue
0.436

@<SCITEGIC>MOL_PROPERTY
Angle
SciTegic.value.DoubleValue
3.478

@<SCITEGIC>MOL_PROPERTY
Pdih
SciTegic.value.DoubleValue
9.415

@<SCITEGIC>MOL_PROPERTY
Idih
SciTegic.value.DoubleValue
0.000

@<SCITEGIC>MOL_PROPERTY
Tether
SciTegic.value.DoubleValue
0.000

@<TRIPOS>MOLECULE
guest-5_confgen4.mol2 : confsearch ligand conformer 962
          22          22           1
SMALL
USER_CHARGES
 
@<TRIPOS>ATOM
       1    C1      21.077900   20.843890   23.243601 C.3        1 MOL1        -0.1685
       2    H1      21.467705   20.949633   22.222093 H          1 MOL1         0.0832
       3    H2      21.599917   21.598707   23.847467 H          1 MOL1         0.0832
       4    C2      21.425240   19.453152   23.827430 C.3        1 MOL1        -0.1685
       5    H3      22.510895   19.402038   23.987420 H          1 MOL1         0.0832
       6    H4      20.971872   19.352612   24.823035 H          1 MOL1         0.0832
       7    C3      21.009618   18.248224   22.952366 C.3        1 MOL1        -0.1685
       8    H5      21.247150   17.327455   23.502448 H          1 MOL1         0.0832
       9    H6      21.630094   18.224232   22.046058 H          1 MOL1         0.0832
      10    C4      19.513787   18.214080   22.554240 C.3        1 MOL1        -0.1761
      11    H7      19.301720   17.217303   22.145647 H          1 MOL1         0.0832
      12    H8      18.874707   18.323377   23.440031 H          1 MOL1         0.0832
      13    C5      19.154518   19.278162   21.492975 C.3        1 MOL1         0.1218
      14    H9      20.027452   19.421485   20.840068 H          1 MOL1         0.0789
      15    C6      18.751950   20.653144   22.073200 C.3        1 MOL1        -0.1761
      16    H10     18.836137   21.391166   21.265063 H          1 MOL1         0.0832
      17    H11     17.690026   20.632869   22.352514 H          1 MOL1         0.0832
      18    C7      19.563951   21.156259   23.292861 C.3        1 MOL1        -0.1685
      19    H12     19.426258   22.243620   23.367099 H          1 MOL1         0.0832
      20    H13     19.135479   20.742081   24.215671 H          1 MOL1         0.0832
      21    O1      18.069945   18.795886   20.709184 O.3        1 MOL1        -0.5509
      22    H14     18.372740   17.963137   20.290301 H          1 MOL1         0.3779
@<TRIPOS>BOND
    1     1     2    1
    2     1     3    1
    3     1     4    1
    4     4     5    1
    5     4     6    1
    6     4     7    1
    7     7     8    1
    8     7     9    1
    9     7    10    1
   10    10    11    1
   11    10    12    1
   12    10    13    1
   13    13    14    1
   14    13    15    1
   15    15    16    1
   16    15    17    1
   17     1    18    1
   18    15    18    1
   19    18    19    1
   20    18    20    1
   21    13    21    1
   22    21    22    1
@<TRIPOS>SUBSTRUCTURE
       1 MOL1            1 RESIDUE      1      MOL     
@<SCITEGIC>MOL_PROPERTY
VConf Rank
SciTegic.value.IntegerValue
962

@<SCITEGIC>MOL_PROPERTY
Conf_Id
SciTegic.value.IntegerValue
144

@<SCITEGIC>MOL_PROPERTY
Delta U+W
SciTegic.value.DoubleValue
-3.291

@<SCITEGIC>MOL_PROPERTY
U+W
SciTegic.value.DoubleValue
3.132

@<SCITEGIC>MOL_PROPERTY
Grad RMS
SciTegic.value.DoubleValue
0.000000

@<SCITEGIC>MOL_PROPERTY
U
SciTegic.value.DoubleValue
5.411

@<SCITEGIC>MOL_PROPERTY
W
SciTegic.value.DoubleValue
-2.279

@<SCITEGIC>MOL_PROPERTY
W(PB)
SciTegic.value.DoubleValue
-4.300

@<SCITEGIC>MOL_PROPERTY
W(SA)
SciTegic.value.DoubleValue
2.021

@<SCITEGIC>MOL_PROPERTY
Valence
SciTegic.value.DoubleValue
11.909

@<SCITEGIC>MOL_PROPERTY
Coulomb
SciTegic.value.DoubleValue
-8.733

@<SCITEGIC>MOL_PROPERTY
VdW
SciTegic.value.DoubleValue
2.236

@<SCITEGIC>MOL_PROPERTY
VdW6
SciTegic.value.DoubleValue
-8.936

@<SCITEGIC>MOL_PROPERTY
VdW12
SciTegic.value.DoubleValue
11.172

@<SCITEGIC>MOL_PROPERTY
Bond
SciTegic.value.DoubleValue
0.223

@<SCITEGIC>MOL_PROPERTY
Angle
SciTegic.value.DoubleValue
2.457

@<SCITEGIC>MOL_PROPERTY
Pdih
SciTegic.value.DoubleValue
9.228

@<SCITEGIC>MOL_PROPERTY
Idih
SciTegic.value.DoubleValue
0.000

@<SCITEGIC>MOL_PROPERTY
Tether
SciTegic.value.DoubleValue
0.000

@<TRIPOS>MOLECULE
guest-5_confgen4.mol2 : confsearch ligand conformer 963
          22          22           1
SMALL
USER_CHARGES
 
@<TRIPOS>ATOM
       1    C1      20.457706   21.163029   22.275661 C.3        1 MOL1        -0.1685
       2    H1      20.929378   22.043748   21.818768 H          1 MOL1         0.0832
       3    H2      19.860082   21.540292   23.116613 H          1 MOL1         0.0832
       4    C2      21.580644   20.224044   22.775052 C.3        1 MOL1        -0.1685
       5    H3      21.946681   19.614333   21.937769 H          1 MOL1         0.0832
       6    H4      22.438810   20.832979   23.090880 H          1 MOL1         0.0832
       7    C3      21.189390   19.303102   23.956030 C.3        1 MOL1        -0.1685
       8    H5      21.299553   19.860982   24.896003 H          1 MOL1         0.0832
       9    H6      21.919907   18.484164   24.008042 H          1 MOL1         0.0832
      10    C4      19.762134   18.703558   23.915706 C.3        1 MOL1        -0.1761
      11    H7      19.740119   17.842698   24.597547 H          1 MOL1         0.0832
      12    H8      19.053615   19.431219   24.332124 H          1 MOL1         0.0832
      13    C5      19.279342   18.264392   22.515121 C.3        1 MOL1         0.1218
      14    H9      20.131153   17.881272   21.935374 H          1 MOL1         0.0789
      15    C6      18.596627   19.412093   21.736878 C.3        1 MOL1        -0.1761
      16    H10     18.060268   18.984911   20.878993 H          1 MOL1         0.0832
      17    H11     17.831813   19.879998   22.370289 H          1 MOL1         0.0832
      18    C7      19.553493   20.505612   21.205524 C.3        1 MOL1        -0.1685
      19    H12     20.179955   20.084562   20.407284 H          1 MOL1         0.0832
      20    H13     18.948401   21.288971   20.729078 H          1 MOL1         0.0832
      21    O1      18.327968   17.220944   22.677338 O.3        1 MOL1        -0.5509
      22    H14     17.589033   17.598723   23.197355 H          1 MOL1         0.3779
@<TRIPOS>BOND
    1     1     2    1
    2     1     3    1
    3     1     4    1
    4     4     5    1
    5     4     6    1
    6     4     7    1
    7     7     8    1
    8     7     9    1
    9     7    10    1
   10    10    11    1
   11    10    12    1
   12    10    13    1
   13    13    14    1
   14    13    15    1
   15    15    16    1
   16    15    17    1
   17     1    18    1
   18    15    18    1
   19    18    19    1
   20    18    20    1
   21    13    21    1
   22    21    22    1
@<TRIPOS>SUBSTRUCTURE
       1 MOL1            1 RESIDUE      1      MOL     
@<SCITEGIC>MOL_PROPERTY
VConf Rank
SciTegic.value.IntegerValue
963

@<SCITEGIC>MOL_PROPERTY
Conf_Id
SciTegic.value.IntegerValue
76

@<SCITEGIC>MOL_PROPERTY
Delta U+W
SciTegic.value.DoubleValue
-3.175

@<SCITEGIC>MOL_PROPERTY
U+W
SciTegic.value.DoubleValue
3.248

@<SCITEGIC>MOL_PROPERTY
Grad RMS
SciTegic.value.DoubleValue
0.000000

@<SCITEGIC>MOL_PROPERTY
U
SciTegic.value.DoubleValue
5.336

@<SCITEGIC>MOL_PROPERTY
W
SciTegic.value.DoubleValue
-2.088

@<SCITEGIC>MOL_PROPERTY
W(PB)
SciTegic.value.DoubleValue
-4.098

@<SCITEGIC>MOL_PROPERTY
W(SA)
SciTegic.value.DoubleValue
2.010

@<SCITEGIC>MOL_PROPERTY
Valence
SciTegic.value.DoubleValue
12.390

@<SCITEGIC>MOL_PROPERTY
Coulomb
SciTegic.value.DoubleValue
-9.270

@<SCITEGIC>MOL_PROPERTY
VdW
SciTegic.value.DoubleValue
2.216

@<SCITEGIC>MOL_PROPERTY
VdW6
SciTegic.value.DoubleValue
-8.967

@<SCITEGIC>MOL_PROPERTY
VdW12
SciTegic.value.DoubleValue
11.183

@<SCITEGIC>MOL_PROPERTY
Bond
SciTegic.value.DoubleValue
0.218

@<SCITEGIC>MOL_PROPERTY
Angle
SciTegic.value.DoubleValue
2.426

@<SCITEGIC>MOL_PROPERTY
Pdih
SciTegic.value.DoubleValue
9.745

@<SCITEGIC>MOL_PROPERTY
Idih
SciTegic.value.DoubleValue
0.000

@<SCITEGIC>MOL_PROPERTY
Tether
SciTegic.value.DoubleValue
0.000

@<TRIPOS>MOLECULE
guest-5_confgen4.mol2 : confsearch ligand conformer 964
          22          22           1
SMALL
USER_CHARGES
 
@<TRIPOS>ATOM
       1    C1      19.057818   17.981408   22.791787 C.3        1 MOL1        -0.1685
       2    H1      18.824096   17.286814   21.973438 H          1 MOL1         0.0832
       3    H2      18.647184   17.520442   23.700470 H          1 MOL1         0.0832
       4    C2      18.314231   19.311940   22.524511 C.3        1 MOL1        -0.1685
       5    H3      18.305058   19.516408   21.445350 H          1 MOL1         0.0832
       6    H4      17.261331   19.174823   22.806265 H          1 MOL1         0.0832
       7    C3      18.879388   20.539733   23.275952 C.3        1 MOL1        -0.1685
       8    H5      19.216256   20.263270   24.284378 H          1 MOL1         0.0832
       9    H6      18.062347   21.260503   23.414610 H          1 MOL1         0.0832
      10    C4      20.010715   21.253701   22.493374 C.3        1 MOL1        -0.1761
      11    H7      19.670763   21.452705   21.469000 H          1 MOL1         0.0832
      12    H8      20.180058   22.240192   22.944566 H          1 MOL1         0.0832
      13    C5      21.368823   20.518182   22.432942 C.3        1 MOL1         0.1218
      14    H9      21.989393   21.057820   21.703024 H          1 MOL1         0.0789
      15    C6      21.298751   19.041768   21.968419 C.3        1 MOL1        -0.1761
      16    H10     20.822632   18.984610   20.981037 H          1 MOL1         0.0832
      17    H11     22.328620   18.691907   21.820925 H          1 MOL1         0.0832
      18    C7      20.593875   18.073597   22.953818 C.3        1 MOL1        -0.1685
      19    H12     21.008340   17.065740   22.816470 H          1 MOL1         0.0832
      20    H13     20.834959   18.348289   23.989127 H          1 MOL1         0.0832
      21    O1      22.005381   20.601839   23.704090 O.3        1 MOL1        -0.5509
      22    H14     22.832199   20.082116   23.636674 H          1 MOL1         0.3779
@<TRIPOS>BOND
    1     1     2    1
    2     1     3    1
    3     1     4    1
    4     4     5    1
    5     4     6    1
    6     4     7    1
    7     7     8    1
    8     7     9    1
    9     7    10    1
   10    10    11    1
   11    10    12    1
   12    10    13    1
   13    13    14    1
   14    13    15    1
   15    15    16    1
   16    15    17    1
   17     1    18    1
   18    15    18    1
   19    18    19    1
   20    18    20    1
   21    13    21    1
   22    21    22    1
@<TRIPOS>SUBSTRUCTURE
       1 MOL1            1 RESIDUE      1      MOL     
@<SCITEGIC>MOL_PROPERTY
VConf Rank
SciTegic.value.IntegerValue
964

@<SCITEGIC>MOL_PROPERTY
Conf_Id
SciTegic.value.IntegerValue
95

@<SCITEGIC>MOL_PROPERTY
Delta U+W
SciTegic.value.DoubleValue
-2.289

@<SCITEGIC>MOL_PROPERTY
U+W
SciTegic.value.DoubleValue
4.134

@<SCITEGIC>MOL_PROPERTY
Grad RMS
SciTegic.value.DoubleValue
0.000000

@<SCITEGIC>MOL_PROPERTY
U
SciTegic.value.DoubleValue
6.373

@<SCITEGIC>MOL_PROPERTY
W
SciTegic.value.DoubleValue
-2.240

@<SCITEGIC>MOL_PROPERTY
W(PB)
SciTegic.value.DoubleValue
-4.254

@<SCITEGIC>MOL_PROPERTY
W(SA)
SciTegic.value.DoubleValue
2.015

@<SCITEGIC>MOL_PROPERTY
Valence
SciTegic.value.DoubleValue
12.093

@<SCITEGIC>MOL_PROPERTY
Coulomb
SciTegic.value.DoubleValue
-8.058

@<SCITEGIC>MOL_PROPERTY
VdW
SciTegic.value.DoubleValue
2.339

@<SCITEGIC>MOL_PROPERTY
VdW6
SciTegic.value.DoubleValue
-9.683

@<SCITEGIC>MOL_PROPERTY
VdW12
SciTegic.value.DoubleValue
12.022

@<SCITEGIC>MOL_PROPERTY
Bond
SciTegic.value.DoubleValue
0.268

@<SCITEGIC>MOL_PROPERTY
Angle
SciTegic.value.DoubleValue
3.005

@<SCITEGIC>MOL_PROPERTY
Pdih
SciTegic.value.DoubleValue
8.820

@<SCITEGIC>MOL_PROPERTY
Idih
SciTegic.value.DoubleValue
0.000

@<SCITEGIC>MOL_PROPERTY
Tether
SciTegic.value.DoubleValue
0.000

@<TRIPOS>MOLECULE
guest-5_confgen4.mol2 : confsearch ligand conformer 965
          22          22           1
SMALL
USER_CHARGES
 
@<TRIPOS>ATOM
       1    C1      20.489112   20.594881   21.118724 C.3        1 MOL1        -0.1685
       2    H1      20.923438   20.203266   20.188803 H          1 MOL1         0.0832
       3    H2      20.319841   21.665603   20.940705 H          1 MOL1         0.0832
       4    C2      21.535717   20.433979   22.247022 C.3        1 MOL1        -0.1685
       5    H3      22.094545   19.500291   22.097299 H          1 MOL1         0.0832
       6    H4      22.275697   21.238916   22.140695 H          1 MOL1         0.0832
       7    C3      20.961843   20.465957   23.682697 C.3        1 MOL1        -0.1685
       8    H5      20.142925   21.193827   23.762693 H          1 MOL1         0.0832
       9    H6      21.752498   20.821136   24.357336 H          1 MOL1         0.0832
      10    C4      20.511551   19.068182   24.177438 C.3        1 MOL1        -0.1761
      11    H7      21.321645   18.348000   24.004287 H          1 MOL1         0.0832
      12    H8      20.383779   19.105922   25.267040 H          1 MOL1         0.0832
      13    C5      19.211908   18.509965   23.553692 C.3        1 MOL1         0.1218
      14    H9      19.132070   17.460518   23.872105 H          1 MOL1         0.0789
      15    C6      19.168792   18.519191   22.005019 C.3        1 MOL1        -0.1761
      16    H10     20.017329   17.950818   21.603239 H          1 MOL1         0.0832
      17    H11     18.268825   17.968435   21.702436 H          1 MOL1         0.0832
      18    C7      19.113783   19.926326   21.355107 C.3        1 MOL1        -0.1685
      19    H12     18.606170   19.846708   20.384434 H          1 MOL1         0.0832
      20    H13     18.482267   20.591686   21.958518 H          1 MOL1         0.0832
      21    O1      18.093672   19.219091   24.078650 O.3        1 MOL1        -0.5509
      22    H14     18.178929   19.197120   25.053552 H          1 MOL1         0.3779
@<TRIPOS>BOND
    1     1     2    1
    2     1     3    1
    3     1     4    1
    4     4     5    1
    5     4     6    1
    6     4     7    1
    7     7     8    1
    8     7     9    1
    9     7    10    1
   10    10    11    1
   11    10    12    1
   12    10    13    1
   13    13    14    1
   14    13    15    1
   15    15    16    1
   16    15    17    1
   17     1    18    1
   18    15    18    1
   19    18    19    1
   20    18    20    1
   21    13    21    1
   22    21    22    1
@<TRIPOS>SUBSTRUCTURE
       1 MOL1            1 RESIDUE      1      MOL     
@<SCITEGIC>MOL_PROPERTY
VConf Rank
SciTegic.value.IntegerValue
965

@<SCITEGIC>MOL_PROPERTY
Conf_Id
SciTegic.value.IntegerValue
41

@<SCITEGIC>MOL_PROPERTY
Delta U+W
SciTegic.value.DoubleValue
-2.114

@<SCITEGIC>MOL_PROPERTY
U+W
SciTegic.value.DoubleValue
4.310

@<SCITEGIC>MOL_PROPERTY
Grad RMS
SciTegic.value.DoubleValue
0.000000

@<SCITEGIC>MOL_PROPERTY
U
SciTegic.value.DoubleValue
6.598

@<SCITEGIC>MOL_PROPERTY
W
SciTegic.value.DoubleValue
-2.289

@<SCITEGIC>MOL_PROPERTY
W(PB)
SciTegic.value.DoubleValue
-4.294

@<SCITEGIC>MOL_PROPERTY
W(SA)
SciTegic.value.DoubleValue
2.005

@<SCITEGIC>MOL_PROPERTY
Valence
SciTegic.value.DoubleValue
12.082

@<SCITEGIC>MOL_PROPERTY
Coulomb
SciTegic.value.DoubleValue
-7.801

@<SCITEGIC>MOL_PROPERTY
VdW
SciTegic.value.DoubleValue
2.317

@<SCITEGIC>MOL_PROPERTY
VdW6
SciTegic.value.DoubleValue
-9.658

@<SCITEGIC>MOL_PROPERTY
VdW12
SciTegic.value.DoubleValue
11.975

@<SCITEGIC>MOL_PROPERTY
Bond
SciTegic.value.DoubleValue
0.267

@<SCITEGIC>MOL_PROPERTY
Angle
SciTegic.value.DoubleValue
3.051

@<SCITEGIC>MOL_PROPERTY
Pdih
SciTegic.value.DoubleValue
8.764

@<SCITEGIC>MOL_PROPERTY
Idih
SciTegic.value.DoubleValue
0.000

@<SCITEGIC>MOL_PROPERTY
Tether
SciTegic.value.DoubleValue
0.000

@<TRIPOS>MOLECULE
guest-5_confgen4.mol2 : confsearch ligand conformer 966
          22          22           1
SMALL
USER_CHARGES
 
@<TRIPOS>ATOM
       1    C1      21.739604   19.601310   22.523137 C.3        1 MOL1        -0.1685
       2    H1      22.826719   19.453489   22.576804 H          1 MOL1         0.0832
       3    H2      21.545173   20.114441   21.571261 H          1 MOL1         0.0832
       4    C2      21.322502   20.488548   23.717382 C.3        1 MOL1        -0.1685
       5    H3      21.466438   19.934423   24.654830 H          1 MOL1         0.0832
       6    H4      22.002613   21.349556   23.769084 H          1 MOL1         0.0832
       7    C3      19.873954   21.019972   23.650154 C.3        1 MOL1        -0.1685
       8    H5      19.788175   21.744243   22.829202 H          1 MOL1         0.0832
       9    H6      19.680342   21.591489   24.567764 H          1 MOL1         0.0832
      10    C4      18.776796   19.929699   23.513278 C.3        1 MOL1        -0.1761
      11    H7      18.908884   19.163099   24.287317 H          1 MOL1         0.0832
      12    H8      17.809889   20.402985   23.726994 H          1 MOL1         0.0832
      13    C5      18.658069   19.257018   22.121360 C.3        1 MOL1         0.1218
      14    H9      17.672220   18.770866   22.089180 H          1 MOL1         0.0789
      15    C6      19.696482   18.146455   21.815601 C.3        1 MOL1        -0.1761
      16    H10     19.239151   17.178755   22.059461 H          1 MOL1         0.0832
      17    H11     19.878007   18.114614   20.733240 H          1 MOL1         0.0832
      18    C7      21.061211   18.213748   22.544904 C.3        1 MOL1        -0.1685
      19    H12     20.946929   17.872039   23.582492 H          1 MOL1         0.0832
      20    H13     21.732824   17.486970   22.068030 H          1 MOL1         0.0832
      21    O1      18.688105   20.239067   21.089083 O.3        1 MOL1        -0.5509
      22    H14     18.569801   19.762845   20.242250 H          1 MOL1         0.3779
@<TRIPOS>BOND
    1     1     2    1
    2     1     3    1
    3     1     4    1
    4     4     5    1
    5     4     6    1
    6     4     7    1
    7     7     8    1
    8     7     9    1
    9     7    10    1
   10    10    11    1
   11    10    12    1
   12    10    13    1
   13    13    14    1
   14    13    15    1
   15    15    16    1
   16    15    17    1
   17     1    18    1
   18    15    18    1
   19    18    19    1
   20    18    20    1
   21    13    21    1
   22    21    22    1
@<TRIPOS>SUBSTRUCTURE
       1 MOL1            1 RESIDUE      1      MOL     
@<SCITEGIC>MOL_PROPERTY
VConf Rank
SciTegic.value.IntegerValue
966

@<SCITEGIC>MOL_PROPERTY
Conf_Id
SciTegic.value.IntegerValue
104

@<SCITEGIC>MOL_PROPERTY
Delta U+W
SciTegic.value.DoubleValue
-1.172

@<SCITEGIC>MOL_PROPERTY
U+W
SciTegic.value.DoubleValue
5.252

@<SCITEGIC>MOL_PROPERTY
Grad RMS
SciTegic.value.DoubleValue
0.000000

@<SCITEGIC>MOL_PROPERTY
U
SciTegic.value.DoubleValue
7.482

@<SCITEGIC>MOL_PROPERTY
W
SciTegic.value.DoubleValue
-2.230

@<SCITEGIC>MOL_PROPERTY
W(PB)
SciTegic.value.DoubleValue
-4.220

@<SCITEGIC>MOL_PROPERTY
W(SA)
SciTegic.value.DoubleValue
1.990

@<SCITEGIC>MOL_PROPERTY
Valence
SciTegic.value.DoubleValue
12.309

@<SCITEGIC>MOL_PROPERTY
Coulomb
SciTegic.value.DoubleValue
-7.084

@<SCITEGIC>MOL_PROPERTY
VdW
SciTegic.value.DoubleValue
2.258

@<SCITEGIC>MOL_PROPERTY
VdW6
SciTegic.value.DoubleValue
-9.770

@<SCITEGIC>MOL_PROPERTY
VdW12
SciTegic.value.DoubleValue
12.028

@<SCITEGIC>MOL_PROPERTY
Bond
SciTegic.value.DoubleValue
0.284

@<SCITEGIC>MOL_PROPERTY
Angle
SciTegic.value.DoubleValue
3.491

@<SCITEGIC>MOL_PROPERTY
Pdih
SciTegic.value.DoubleValue
8.535

@<SCITEGIC>MOL_PROPERTY
Idih
SciTegic.value.DoubleValue
0.000

@<SCITEGIC>MOL_PROPERTY
Tether
SciTegic.value.DoubleValue
0.000

@<TRIPOS>MOLECULE
guest-5_confgen4.mol2 : confsearch ligand conformer 967
          22          22           1
SMALL
USER_CHARGES
 
@<TRIPOS>ATOM
       1    C1      21.474129   19.929487   23.443553 C.3        1 MOL1        -0.1685
       2    H1      20.979971   20.074936   24.413674 H          1 MOL1         0.0832
       3    H2      22.541182   20.126423   23.615467 H          1 MOL1         0.0832
       4    C2      20.965311   20.955513   22.405354 C.3        1 MOL1        -0.1685
       5    H3      21.473159   21.913736   22.581843 H          1 MOL1         0.0832
       6    H4      21.284336   20.645842   21.401530 H          1 MOL1         0.0832
       7    C3      19.438623   21.221541   22.416675 C.3        1 MOL1        -0.1685
       8    H5      19.139300   21.572201   21.419300 H          1 MOL1         0.0832
       9    H6      19.237677   22.063220   23.093526 H          1 MOL1         0.0832
      10    C4      18.515017   20.048178   22.842557 C.3        1 MOL1        -0.1761
      11    H7      18.521327   19.965630   23.937135 H          1 MOL1         0.0832
      12    H8      17.483436   20.316636   22.580313 H          1 MOL1         0.0832
      13    C5      18.818120   18.657940   22.238118 C.3        1 MOL1         0.1218
      14    H9      17.895070   18.064256   22.304447 H          1 MOL1         0.0789
      15    C6      19.903076   17.886015   23.022512 C.3        1 MOL1        -0.1761
      16    H10     19.590713   17.809701   24.072115 H          1 MOL1         0.0832
      17    H11     19.928876   16.854996   22.646244 H          1 MOL1         0.0832
      18    C7      21.339062   18.463644   22.967021 C.3        1 MOL1        -0.1685
      19    H12     21.979202   17.834722   23.600574 H          1 MOL1         0.0832
      20    H13     21.741593   18.363857   21.949922 H          1 MOL1         0.0832
      21    O1      19.192460   18.777974   20.874436 O.3        1 MOL1        -0.5509
      22    H14     19.962070   19.381072   20.890543 H          1 MOL1         0.3779
@<TRIPOS>BOND
    1     1     2    1
    2     1     3    1
    3     1     4    1
    4     4     5    1
    5     4     6    1
    6     4     7    1
    7     7     8    1
    8     7     9    1
    9     7    10    1
   10    10    11    1
   11    10    12    1
   12    10    13    1
   13    13    14    1
   14    13    15    1
   15    15    16    1
   16    15    17    1
   17     1    18    1
   18    15    18    1
   19    18    19    1
   20    18    20    1
   21    13    21    1
   22    21    22    1
@<TRIPOS>SUBSTRUCTURE
       1 MOL1            1 RESIDUE      1      MOL     
@<SCITEGIC>MOL_PROPERTY
VConf Rank
SciTegic.value.IntegerValue
967

@<SCITEGIC>MOL_PROPERTY
Conf_Id
SciTegic.value.IntegerValue
99

@<SCITEGIC>MOL_PROPERTY
Delta U+W
SciTegic.value.DoubleValue
-3.852

@<SCITEGIC>MOL_PROPERTY
U+W
SciTegic.value.DoubleValue
2.572

@<SCITEGIC>MOL_PROPERTY
Grad RMS
SciTegic.value.DoubleValue
0.000000

@<SCITEGIC>MOL_PROPERTY
U
SciTegic.value.DoubleValue
3.922

@<SCITEGIC>MOL_PROPERTY
W
SciTegic.value.DoubleValue
-1.350

@<SCITEGIC>MOL_PROPERTY
W(PB)
SciTegic.value.DoubleValue
-3.345

@<SCITEGIC>MOL_PROPERTY
W(SA)
SciTegic.value.DoubleValue
1.995

@<SCITEGIC>MOL_PROPERTY
Valence
SciTegic.value.DoubleValue
12.571

@<SCITEGIC>MOL_PROPERTY
Coulomb
SciTegic.value.DoubleValue
-10.581

@<SCITEGIC>MOL_PROPERTY
VdW
SciTegic.value.DoubleValue
1.932

@<SCITEGIC>MOL_PROPERTY
VdW6
SciTegic.value.DoubleValue
-10.483

@<SCITEGIC>MOL_PROPERTY
VdW12
SciTegic.value.DoubleValue
12.415

@<SCITEGIC>MOL_PROPERTY
Bond
SciTegic.value.DoubleValue
0.268

@<SCITEGIC>MOL_PROPERTY
Angle
SciTegic.value.DoubleValue
3.728

@<SCITEGIC>MOL_PROPERTY
Pdih
SciTegic.value.DoubleValue
8.575

@<SCITEGIC>MOL_PROPERTY
Idih
SciTegic.value.DoubleValue
0.000

@<SCITEGIC>MOL_PROPERTY
Tether
SciTegic.value.DoubleValue
0.000

@<TRIPOS>MOLECULE
guest-5_confgen4.mol2 : confsearch ligand conformer 968
          22          22           1
SMALL
USER_CHARGES
 
@<TRIPOS>ATOM
       1    C1      18.804933   18.628655   23.164870 C.3        1 MOL1        -0.1685
       2    H1      17.734470   18.384245   23.205663 H          1 MOL1         0.0832
       3    H2      19.301458   17.818384   23.715306 H          1 MOL1         0.0832
       4    C2      19.013554   19.984139   23.901749 C.3        1 MOL1        -0.1685
       5    H3      18.033413   20.326342   24.261627 H          1 MOL1         0.0832
       6    H4      19.611616   19.832809   24.810306 H          1 MOL1         0.0832
       7    C3      19.632211   21.127642   23.057702 C.3        1 MOL1        -0.1685
       8    H5      19.544651   22.063838   23.625678 H          1 MOL1         0.0832
       9    H6      19.026474   21.293354   22.158151 H          1 MOL1         0.0832
      10    C4      21.124039   20.950664   22.660266 C.3        1 MOL1        -0.1761
      11    H7      21.321222   21.576893   21.780666 H          1 MOL1         0.0832
      12    H8      21.748220   21.369962   23.460630 H          1 MOL1         0.0832
      13    C5      21.639017   19.519659   22.368409 C.3        1 MOL1         0.1218
      14    H9      22.625265   19.625674   21.894226 H          1 MOL1         0.0789
      15    C6      20.771803   18.660431   21.415617 C.3        1 MOL1        -0.1761
      16    H10     20.927528   19.015810   20.388876 H          1 MOL1         0.0832
      17    H11     21.174210   17.638785   21.433095 H          1 MOL1         0.0832
      18    C7      19.241806   18.589754   21.678134 C.3        1 MOL1        -0.1685
      19    H12     18.733400   19.386969   21.121771 H          1 MOL1         0.0832
      20    H13     18.866905   17.658962   21.231146 H          1 MOL1         0.0832
      21    O1      21.834354   18.825502   23.590388 O.3        1 MOL1        -0.5509
      22    H14     20.935320   18.757428   23.969911 H          1 MOL1         0.3779
@<TRIPOS>BOND
    1     1     2    1
    2     1     3    1
    3     1     4    1
    4     4     5    1
    5     4     6    1
    6     4     7    1
    7     7     8    1
    8     7     9    1
    9     7    10    1
   10    10    11    1
   11    10    12    1
   12    10    13    1
   13    13    14    1
   14    13    15    1
   15    15    16    1
   16    15    17    1
   17     1    18    1
   18    15    18    1
   19    18    19    1
   20    18    20    1
   21    13    21    1
   22    21    22    1
@<TRIPOS>SUBSTRUCTURE
       1 MOL1            1 RESIDUE      1      MOL     
@<SCITEGIC>MOL_PROPERTY
VConf Rank
SciTegic.value.IntegerValue
968

@<SCITEGIC>MOL_PROPERTY
Conf_Id
SciTegic.value.IntegerValue
98

@<SCITEGIC>MOL_PROPERTY
Delta U+W
SciTegic.value.DoubleValue
0.930

@<SCITEGIC>MOL_PROPERTY
U+W
SciTegic.value.DoubleValue
7.353

@<SCITEGIC>MOL_PROPERTY
Grad RMS
SciTegic.value.DoubleValue
0.000000

@<SCITEGIC>MOL_PROPERTY
U
SciTegic.value.DoubleValue
8.455

@<SCITEGIC>MOL_PROPERTY
W
SciTegic.value.DoubleValue
-1.102

@<SCITEGIC>MOL_PROPERTY
W(PB)
SciTegic.value.DoubleValue
-3.101

@<SCITEGIC>MOL_PROPERTY
W(SA)
SciTegic.value.DoubleValue
2.000

@<SCITEGIC>MOL_PROPERTY
Valence
SciTegic.value.DoubleValue
15.601

@<SCITEGIC>MOL_PROPERTY
Coulomb
SciTegic.value.DoubleValue
-10.573

@<SCITEGIC>MOL_PROPERTY
VdW
SciTegic.value.DoubleValue
3.427

@<SCITEGIC>MOL_PROPERTY
VdW6
SciTegic.value.DoubleValue
-11.360

@<SCITEGIC>MOL_PROPERTY
VdW12
SciTegic.value.DoubleValue
14.787

@<SCITEGIC>MOL_PROPERTY
Bond
SciTegic.value.DoubleValue
0.471

@<SCITEGIC>MOL_PROPERTY
Angle
SciTegic.value.DoubleValue
5.445

@<SCITEGIC>MOL_PROPERTY
Pdih
SciTegic.value.DoubleValue
9.685

@<SCITEGIC>MOL_PROPERTY
Idih
SciTegic.value.DoubleValue
0.000

@<SCITEGIC>MOL_PROPERTY
Tether
SciTegic.value.DoubleValue
0.000

@<TRIPOS>MOLECULE
guest-5_confgen4.mol2 : confsearch ligand conformer 969
          22          22           1
SMALL
USER_CHARGES
 
@<TRIPOS>ATOM
       1    C1      21.110550   20.361134   23.690064 C.3        1 MOL1        -0.1685
       2    H1      21.204570   21.117404   22.900129 H          1 MOL1         0.0832
       3    H2      21.724039   20.737748   24.519826 H          1 MOL1         0.0832
       4    C2      21.710577   19.017601   23.203190 C.3        1 MOL1        -0.1685
       5    H3      22.764674   19.198057   22.951813 H          1 MOL1         0.0832
       6    H4      21.721699   18.297745   24.032833 H          1 MOL1         0.0832
       7    C3      21.024437   18.365720   21.970750 C.3        1 MOL1        -0.1685
       8    H5      20.391391   17.528275   22.291613 H          1 MOL1         0.0832
       9    H6      21.804158   17.907844   21.347036 H          1 MOL1         0.0832
      10    C4      20.191691   19.336615   21.092339 C.3        1 MOL1        -0.1761
      11    H7      20.810471   20.203018   20.827605 H          1 MOL1         0.0832
      12    H8      19.978670   18.839981   20.136116 H          1 MOL1         0.0832
      13    C5      18.852569   19.834616   21.710902 C.3        1 MOL1         0.1218
      14    H9      18.790024   20.921074   21.553537 H          1 MOL1         0.0789
      15    C6      18.658936   19.553431   23.222093 C.3        1 MOL1        -0.1761
      16    H10     17.638257   19.838229   23.508732 H          1 MOL1         0.0832
      17    H11     18.716318   18.474031   23.406999 H          1 MOL1         0.0832
      18    C7      19.640451   20.291819   24.166137 C.3        1 MOL1        -0.1685
      19    H12     19.281999   21.318982   24.318657 H          1 MOL1         0.0832
      20    H13     19.603474   19.810187   25.152714 H          1 MOL1         0.0832
      21    O1      17.776988   19.209644   21.019735 O.3        1 MOL1        -0.5509
      22    H14     16.949312   19.582647   21.388516 H          1 MOL1         0.3779
@<TRIPOS>BOND
    1     1     2    1
    2     1     3    1
    3     1     4    1
    4     4     5    1
    5     4     6    1
    6     4     7    1
    7     7     8    1
    8     7     9    1
    9     7    10    1
   10    10    11    1
   11    10    12    1
   12    10    13    1
   13    13    14    1
   14    13    15    1
   15    15    16    1
   16    15    17    1
   17     1    18    1
   18    15    18    1
   19    18    19    1
   20    18    20    1
   21    13    21    1
   22    21    22    1
@<TRIPOS>SUBSTRUCTURE
       1 MOL1            1 RESIDUE      1      MOL     
@<SCITEGIC>MOL_PROPERTY
VConf Rank
SciTegic.value.IntegerValue
969

@<SCITEGIC>MOL_PROPERTY
Conf_Id
SciTegic.value.IntegerValue
141

@<SCITEGIC>MOL_PROPERTY
Delta U+W
SciTegic.value.DoubleValue
0.000

@<SCITEGIC>MOL_PROPERTY
U+W
SciTegic.value.DoubleValue
6.423

@<SCITEGIC>MOL_PROPERTY
Grad RMS
SciTegic.value.DoubleValue
0.000000

@<SCITEGIC>MOL_PROPERTY
U
SciTegic.value.DoubleValue
8.781

@<SCITEGIC>MOL_PROPERTY
W
SciTegic.value.DoubleValue
-2.358

@<SCITEGIC>MOL_PROPERTY
W(PB)
SciTegic.value.DoubleValue
-4.373

@<SCITEGIC>MOL_PROPERTY
W(SA)
SciTegic.value.DoubleValue
2.015

@<SCITEGIC>MOL_PROPERTY
Valence
SciTegic.value.DoubleValue
13.328

@<SCITEGIC>MOL_PROPERTY
Coulomb
SciTegic.value.DoubleValue
-8.387

@<SCITEGIC>MOL_PROPERTY
VdW
SciTegic.value.DoubleValue
3.840

@<SCITEGIC>MOL_PROPERTY
VdW6
SciTegic.value.DoubleValue
-9.744

@<SCITEGIC>MOL_PROPERTY
VdW12
SciTegic.value.DoubleValue
13.584

@<SCITEGIC>MOL_PROPERTY
Bond
SciTegic.value.DoubleValue
0.436

@<SCITEGIC>MOL_PROPERTY
Angle
SciTegic.value.DoubleValue
3.478

@<SCITEGIC>MOL_PROPERTY
Pdih
SciTegic.value.DoubleValue
9.415

@<SCITEGIC>MOL_PROPERTY
Idih
SciTegic.value.DoubleValue
0.000

@<SCITEGIC>MOL_PROPERTY
Tether
SciTegic.value.DoubleValue
0.000

@<TRIPOS>MOLECULE
guest-5_confgen4.mol2 : confsearch ligand conformer 970
          22          22           1
SMALL
USER_CHARGES
 
@<TRIPOS>ATOM
       1    C1      18.882867   19.090594   23.913569 C.3        1 MOL1        -0.1685
       2    H1      18.045898   19.417188   23.281566 H          1 MOL1         0.0832
       3    H2      18.430532   18.643850   24.809514 H          1 MOL1         0.0832
       4    C2      19.735601   20.298707   24.370692 C.3        1 MOL1        -0.1685
       5    H3      19.140348   20.902998   25.068805 H          1 MOL1         0.0832
       6    H4      20.597696   19.938162   24.948341 H          1 MOL1         0.0832
       7    C3      20.231679   21.222994   23.234941 C.3        1 MOL1        -0.1685
       8    H5      20.875263   21.995064   23.678264 H          1 MOL1         0.0832
       9    H6      19.376496   21.758896   22.800855 H          1 MOL1         0.0832
      10    C4      21.019205   20.510203   22.108482 C.3        1 MOL1        -0.1761
      11    H7      21.505726   21.285343   21.501901 H          1 MOL1         0.0832
      12    H8      21.828177   19.898690   22.528737 H          1 MOL1         0.0832
      13    C5      20.112167   19.654672   21.195807 C.3        1 MOL1         0.1218
      14    H9      19.129146   20.143017   21.132310 H          1 MOL1         0.0789
      15    C6      19.901585   18.201920   21.680020 C.3        1 MOL1        -0.1761
      16    H10     19.018711   17.804986   21.162499 H          1 MOL1         0.0832
      17    H11     20.746849   17.582958   21.350589 H          1 MOL1         0.0832
      18    C7      19.717693   17.998484   23.204763 C.3        1 MOL1        -0.1685
      19    H12     19.236285   17.023542   23.361472 H          1 MOL1         0.0832
      20    H13     20.701914   17.921075   23.686456 H          1 MOL1         0.0832
      21    O1      20.685333   19.606939   19.894876 O.3        1 MOL1        -0.5509
      22    H14     20.739887   20.532228   19.576314 H          1 MOL1         0.3779
@<TRIPOS>BOND
    1     1     2    1
    2     1     3    1
    3     1     4    1
    4     4     5    1
    5     4     6    1
    6     4     7    1
    7     7     8    1
    8     7     9    1
    9     7    10    1
   10    10    11    1
   11    10    12    1
   12    10    13    1
   13    13    14    1
   14    13    15    1
   15    15    16    1
   16    15    17    1
   17     1    18    1
   18    15    18    1
   19    18    19    1
   20    18    20    1
   21    13    21    1
   22    21    22    1
@<TRIPOS>SUBSTRUCTURE
       1 MOL1            1 RESIDUE      1      MOL     
@<SCITEGIC>MOL_PROPERTY
VConf Rank
SciTegic.value.IntegerValue
970

@<SCITEGIC>MOL_PROPERTY
Conf_Id
SciTegic.value.IntegerValue
144

@<SCITEGIC>MOL_PROPERTY
Delta U+W
SciTegic.value.DoubleValue
-3.291

@<SCITEGIC>MOL_PROPERTY
U+W
SciTegic.value.DoubleValue
3.132

@<SCITEGIC>MOL_PROPERTY
Grad RMS
SciTegic.value.DoubleValue
0.000000

@<SCITEGIC>MOL_PROPERTY
U
SciTegic.value.DoubleValue
5.411

@<SCITEGIC>MOL_PROPERTY
W
SciTegic.value.DoubleValue
-2.279

@<SCITEGIC>MOL_PROPERTY
W(PB)
SciTegic.value.DoubleValue
-4.300

@<SCITEGIC>MOL_PROPERTY
W(SA)
SciTegic.value.DoubleValue
2.021

@<SCITEGIC>MOL_PROPERTY
Valence
SciTegic.value.DoubleValue
11.909

@<SCITEGIC>MOL_PROPERTY
Coulomb
SciTegic.value.DoubleValue
-8.733

@<SCITEGIC>MOL_PROPERTY
VdW
SciTegic.value.DoubleValue
2.236

@<SCITEGIC>MOL_PROPERTY
VdW6
SciTegic.value.DoubleValue
-8.936

@<SCITEGIC>MOL_PROPERTY
VdW12
SciTegic.value.DoubleValue
11.172

@<SCITEGIC>MOL_PROPERTY
Bond
SciTegic.value.DoubleValue
0.223

@<SCITEGIC>MOL_PROPERTY
Angle
SciTegic.value.DoubleValue
2.457

@<SCITEGIC>MOL_PROPERTY
Pdih
SciTegic.value.DoubleValue
9.228

@<SCITEGIC>MOL_PROPERTY
Idih
SciTegic.value.DoubleValue
0.000

@<SCITEGIC>MOL_PROPERTY
Tether
SciTegic.value.DoubleValue
0.000

@<TRIPOS>MOLECULE
guest-5_confgen4.mol2 : confsearch ligand conformer 971
          22          22           1
SMALL
USER_CHARGES
 
@<TRIPOS>ATOM
       1    C1      21.133230   19.984821   23.833332 C.3        1 MOL1        -0.1685
       2    H1      22.063827   20.095513   24.406592 H          1 MOL1         0.0832
       3    H2      20.373819   20.568663   24.371016 H          1 MOL1         0.0832
       4    C2      20.760747   18.483875   23.811148 C.3        1 MOL1        -0.1685
       5    H3      21.328738   17.977927   23.018573 H          1 MOL1         0.0832
       6    H4      21.093300   18.021289   24.750521 H          1 MOL1         0.0832
       7    C3      19.251695   18.184539   23.640612 C.3        1 MOL1        -0.1685
       8    H5      18.762104   18.245374   24.622201 H          1 MOL1         0.0832
       9    H6      19.144290   17.139791   23.318145 H          1 MOL1         0.0832
      10    C4      18.477259   19.097397   22.658228 C.3        1 MOL1        -0.1761
      11    H7      17.545185   18.583785   22.386364 H          1 MOL1         0.0832
      12    H8      18.171103   20.012393   23.181626 H          1 MOL1         0.0832
      13    C5      19.249857   19.477091   21.375061 C.3        1 MOL1         0.1218
      14    H9      19.891489   18.638301   21.069761 H          1 MOL1         0.0789
      15    C6      20.109674   20.748754   21.555521 C.3        1 MOL1        -0.1761
      16    H10     20.422520   21.105225   20.564972 H          1 MOL1         0.0832
      17    H11     19.493832   21.549403   21.985387 H          1 MOL1         0.0832
      18    C7      21.379505   20.565854   22.420271 C.3        1 MOL1        -0.1685
      19    H12     22.096539   19.929329   21.883966 H          1 MOL1         0.0832
      20    H13     21.867695   21.544456   22.524179 H          1 MOL1         0.0832
      21    O1      18.305484   19.731718   20.343782 O.3        1 MOL1        -0.5509
      22    H14     17.754181   20.480131   20.652172 H          1 MOL1         0.3779
@<TRIPOS>BOND
    1     1     2    1
    2     1     3    1
    3     1     4    1
    4     4     5    1
    5     4     6    1
    6     4     7    1
    7     7     8    1
    8     7     9    1
    9     7    10    1
   10    10    11    1
   11    10    12    1
   12    10    13    1
   13    13    14    1
   14    13    15    1
   15    15    16    1
   16    15    17    1
   17     1    18    1
   18    15    18    1
   19    18    19    1
   20    18    20    1
   21    13    21    1
   22    21    22    1
@<TRIPOS>SUBSTRUCTURE
       1 MOL1            1 RESIDUE      1      MOL     
@<SCITEGIC>MOL_PROPERTY
VConf Rank
SciTegic.value.IntegerValue
971

@<SCITEGIC>MOL_PROPERTY
Conf_Id
SciTegic.value.IntegerValue
76

@<SCITEGIC>MOL_PROPERTY
Delta U+W
SciTegic.value.DoubleValue
-3.175

@<SCITEGIC>MOL_PROPERTY
U+W
SciTegic.value.DoubleValue
3.248

@<SCITEGIC>MOL_PROPERTY
Grad RMS
SciTegic.value.DoubleValue
0.000000

@<SCITEGIC>MOL_PROPERTY
U
SciTegic.value.DoubleValue
5.336

@<SCITEGIC>MOL_PROPERTY
W
SciTegic.value.DoubleValue
-2.088

@<SCITEGIC>MOL_PROPERTY
W(PB)
SciTegic.value.DoubleValue
-4.098

@<SCITEGIC>MOL_PROPERTY
W(SA)
SciTegic.value.DoubleValue
2.010

@<SCITEGIC>MOL_PROPERTY
Valence
SciTegic.value.DoubleValue
12.390

@<SCITEGIC>MOL_PROPERTY
Coulomb
SciTegic.value.DoubleValue
-9.270

@<SCITEGIC>MOL_PROPERTY
VdW
SciTegic.value.DoubleValue
2.216

@<SCITEGIC>MOL_PROPERTY
VdW6
SciTegic.value.DoubleValue
-8.967

@<SCITEGIC>MOL_PROPERTY
VdW12
SciTegic.value.DoubleValue
11.183

@<SCITEGIC>MOL_PROPERTY
Bond
SciTegic.value.DoubleValue
0.218

@<SCITEGIC>MOL_PROPERTY
Angle
SciTegic.value.DoubleValue
2.426

@<SCITEGIC>MOL_PROPERTY
Pdih
SciTegic.value.DoubleValue
9.745

@<SCITEGIC>MOL_PROPERTY
Idih
SciTegic.value.DoubleValue
0.000

@<SCITEGIC>MOL_PROPERTY
Tether
SciTegic.value.DoubleValue
0.000

@<TRIPOS>MOLECULE
guest-5_confgen4.mol2 : confsearch ligand conformer 972
          22          22           1
SMALL
USER_CHARGES
 
@<TRIPOS>ATOM
       1    C1      19.050940   18.365627   23.717531 C.3        1 MOL1        -0.1685
       2    H1      18.957437   17.279962   23.578355 H          1 MOL1         0.0832
       3    H2      18.491265   18.597988   24.633821 H          1 MOL1         0.0832
       4    C2      18.366596   19.067753   22.520298 C.3        1 MOL1        -0.1685
       5    H3      18.540758   18.485434   21.605393 H          1 MOL1         0.0832
       6    H4      17.280862   19.038148   22.684885 H          1 MOL1         0.0832
       7    C3      18.799381   20.533989   22.287075 C.3        1 MOL1        -0.1685
       8    H5      18.959981   21.053567   23.241580 H          1 MOL1         0.0832
       9    H6      17.972426   21.058699   21.789966 H          1 MOL1         0.0832
      10    C4      20.048612   20.653446   21.377552 C.3        1 MOL1        -0.1761
      11    H7      19.887482   20.066373   20.464373 H          1 MOL1         0.0832
      12    H8      20.141538   21.695736   21.045272 H          1 MOL1         0.0832
      13    C5      21.395540   20.232819   22.008387 C.3        1 MOL1         0.1218
      14    H9      22.132047   20.202641   21.192456 H          1 MOL1         0.0789
      15    C6      21.401509   18.836436   22.679628 C.3        1 MOL1        -0.1761
      16    H10     21.099288   18.072446   21.951713 H          1 MOL1         0.0832
      17    H11     22.440622   18.599941   22.942500 H          1 MOL1         0.0832
      18    C7      20.537612   18.718028   23.962157 C.3        1 MOL1        -0.1685
      19    H12     20.966878   17.939287   24.606916 H          1 MOL1         0.0832
      20    H13     20.600610   19.645814   24.545840 H          1 MOL1         0.0832
      21    O1      21.807908   21.226403   22.941536 O.3        1 MOL1        -0.5509
      22    H14     22.632928   20.897272   23.352994 H          1 MOL1         0.3779
@<TRIPOS>BOND
    1     1     2    1
    2     1     3    1
    3     1     4    1
    4     4     5    1
    5     4     6    1
    6     4     7    1
    7     7     8    1
    8     7     9    1
    9     7    10    1
   10    10    11    1
   11    10    12    1
   12    10    13    1
   13    13    14    1
   14    13    15    1
   15    15    16    1
   16    15    17    1
   17     1    18    1
   18    15    18    1
   19    18    19    1
   20    18    20    1
   21    13    21    1
   22    21    22    1
@<TRIPOS>SUBSTRUCTURE
       1 MOL1            1 RESIDUE      1      MOL     
@<SCITEGIC>MOL_PROPERTY
VConf Rank
SciTegic.value.IntegerValue
972

@<SCITEGIC>MOL_PROPERTY
Conf_Id
SciTegic.value.IntegerValue
95

@<SCITEGIC>MOL_PROPERTY
Delta U+W
SciTegic.value.DoubleValue
-2.289

@<SCITEGIC>MOL_PROPERTY
U+W
SciTegic.value.DoubleValue
4.134

@<SCITEGIC>MOL_PROPERTY
Grad RMS
SciTegic.value.DoubleValue
0.000000

@<SCITEGIC>MOL_PROPERTY
U
SciTegic.value.DoubleValue
6.373

@<SCITEGIC>MOL_PROPERTY
W
SciTegic.value.DoubleValue
-2.240

@<SCITEGIC>MOL_PROPERTY
W(PB)
SciTegic.value.DoubleValue
-4.254

@<SCITEGIC>MOL_PROPERTY
W(SA)
SciTegic.value.DoubleValue
2.015

@<SCITEGIC>MOL_PROPERTY
Valence
SciTegic.value.DoubleValue
12.093

@<SCITEGIC>MOL_PROPERTY
Coulomb
SciTegic.value.DoubleValue
-8.058

@<SCITEGIC>MOL_PROPERTY
VdW
SciTegic.value.DoubleValue
2.339

@<SCITEGIC>MOL_PROPERTY
VdW6
SciTegic.value.DoubleValue
-9.683

@<SCITEGIC>MOL_PROPERTY
VdW12
SciTegic.value.DoubleValue
12.022

@<SCITEGIC>MOL_PROPERTY
Bond
SciTegic.value.DoubleValue
0.268

@<SCITEGIC>MOL_PROPERTY
Angle
SciTegic.value.DoubleValue
3.005

@<SCITEGIC>MOL_PROPERTY
Pdih
SciTegic.value.DoubleValue
8.820

@<SCITEGIC>MOL_PROPERTY
Idih
SciTegic.value.DoubleValue
0.000

@<SCITEGIC>MOL_PROPERTY
Tether
SciTegic.value.DoubleValue
0.000

@<TRIPOS>MOLECULE
guest-5_confgen4.mol2 : confsearch ligand conformer 973
          22          22           1
SMALL
USER_CHARGES
 
@<TRIPOS>ATOM
       1    C1      21.730423   19.455415   23.591234 C.3        1 MOL1        -0.1685
       2    H1      22.173757   20.127853   24.338252 H          1 MOL1         0.0832
       3    H2      22.441654   18.625929   23.477688 H          1 MOL1         0.0832
       4    C2      21.633592   20.219520   22.249185 C.3        1 MOL1        -0.1685
       5    H3      21.392469   21.273156   22.444607 H          1 MOL1         0.0832
       6    H4      22.631729   20.227310   21.790424 H          1 MOL1         0.0832
       7    C3      20.619855   19.638723   21.236008 C.3        1 MOL1        -0.1685
       8    H5      20.615311   18.540700   21.269817 H          1 MOL1         0.0832
       9    H6      20.954184   19.911321   20.225889 H          1 MOL1         0.0832
      10    C4      19.190543   20.205287   21.429349 C.3        1 MOL1        -0.1761
      11    H7      19.242039   21.300729   21.476803 H          1 MOL1         0.0832
      12    H8      18.599531   19.980412   20.532065 H          1 MOL1         0.0832
      13    C5      18.415004   19.692720   22.664480 C.3        1 MOL1         0.1218
      14    H9      17.510560   20.312057   22.751104 H          1 MOL1         0.0789
      15    C6      19.173351   19.805592   24.010772 C.3        1 MOL1        -0.1761
      16    H10     19.461949   20.848861   24.191850 H          1 MOL1         0.0832
      17    H11     18.461826   19.548959   24.806197 H          1 MOL1         0.0832
      18    C7      20.408593   18.878365   24.151729 C.3        1 MOL1        -0.1685
      19    H12     20.562400   18.655415   25.216085 H          1 MOL1         0.0832
      20    H13     20.203182   17.908659   23.679399 H          1 MOL1         0.0832
      21    O1      18.010293   18.345241   22.442219 O.3        1 MOL1        -0.5509
      22    H14     17.554091   18.327591   21.576335 H          1 MOL1         0.3779
@<TRIPOS>BOND
    1     1     2    1
    2     1     3    1
    3     1     4    1
    4     4     5    1
    5     4     6    1
    6     4     7    1
    7     7     8    1
    8     7     9    1
    9     7    10    1
   10    10    11    1
   11    10    12    1
   12    10    13    1
   13    13    14    1
   14    13    15    1
   15    15    16    1
   16    15    17    1
   17     1    18    1
   18    15    18    1
   19    18    19    1
   20    18    20    1
   21    13    21    1
   22    21    22    1
@<TRIPOS>SUBSTRUCTURE
       1 MOL1            1 RESIDUE      1      MOL     
@<SCITEGIC>MOL_PROPERTY
VConf Rank
SciTegic.value.IntegerValue
973

@<SCITEGIC>MOL_PROPERTY
Conf_Id
SciTegic.value.IntegerValue
41

@<SCITEGIC>MOL_PROPERTY
Delta U+W
SciTegic.value.DoubleValue
-2.114

@<SCITEGIC>MOL_PROPERTY
U+W
SciTegic.value.DoubleValue
4.310

@<SCITEGIC>MOL_PROPERTY
Grad RMS
SciTegic.value.DoubleValue
0.000000

@<SCITEGIC>MOL_PROPERTY
U
SciTegic.value.DoubleValue
6.598

@<SCITEGIC>MOL_PROPERTY
W
SciTegic.value.DoubleValue
-2.289

@<SCITEGIC>MOL_PROPERTY
W(PB)
SciTegic.value.DoubleValue
-4.294

@<SCITEGIC>MOL_PROPERTY
W(SA)
SciTegic.value.DoubleValue
2.005

@<SCITEGIC>MOL_PROPERTY
Valence
SciTegic.value.DoubleValue
12.082

@<SCITEGIC>MOL_PROPERTY
Coulomb
SciTegic.value.DoubleValue
-7.801

@<SCITEGIC>MOL_PROPERTY
VdW
SciTegic.value.DoubleValue
2.317

@<SCITEGIC>MOL_PROPERTY
VdW6
SciTegic.value.DoubleValue
-9.658

@<SCITEGIC>MOL_PROPERTY
VdW12
SciTegic.value.DoubleValue
11.975

@<SCITEGIC>MOL_PROPERTY
Bond
SciTegic.value.DoubleValue
0.267

@<SCITEGIC>MOL_PROPERTY
Angle
SciTegic.value.DoubleValue
3.051

@<SCITEGIC>MOL_PROPERTY
Pdih
SciTegic.value.DoubleValue
8.764

@<SCITEGIC>MOL_PROPERTY
Idih
SciTegic.value.DoubleValue
0.000

@<SCITEGIC>MOL_PROPERTY
Tether
SciTegic.value.DoubleValue
0.000

@<TRIPOS>MOLECULE
guest-5_confgen4.mol2 : confsearch ligand conformer 974
          22          22           1
SMALL
USER_CHARGES
 
@<TRIPOS>ATOM
       1    C1      21.624796   19.928921   22.210512 C.3        1 MOL1        -0.1685
       2    H1      22.709208   20.005524   22.053248 H          1 MOL1         0.0832
       3    H2      21.152778   20.364926   21.319291 H          1 MOL1         0.0832
       4    C2      21.270016   20.747031   23.472342 C.3        1 MOL1        -0.1685
       5    H3      21.699155   20.260276   24.358622 H          1 MOL1         0.0832
       6    H4      21.757506   21.728873   23.402352 H          1 MOL1         0.0832
       7    C3      19.757702   20.972494   23.689815 C.3        1 MOL1        -0.1685
       8    H5      19.371845   21.640873   22.908615 H          1 MOL1         0.0832
       9    H6      19.629419   21.518867   24.633819 H          1 MOL1         0.0832
      10    C4      18.900240   19.679481   23.753569 C.3        1 MOL1        -0.1761
      11    H7      19.330296   18.977696   24.479383 H          1 MOL1         0.0832
      12    H8      17.915683   19.953379   24.153834 H          1 MOL1         0.0832
      13    C5      18.659137   18.957470   22.402791 C.3        1 MOL1         0.1218
      14    H9      17.805299   18.281329   22.554689 H          1 MOL1         0.0789
      15    C6      19.824810   18.071563   21.891405 C.3        1 MOL1        -0.1761
      16    H10     19.629135   17.038703   22.207590 H          1 MOL1         0.0832
      17    H11     19.800197   18.046381   20.794030 H          1 MOL1         0.0832
      18    C7      21.260242   18.434047   22.346419 C.3        1 MOL1        -0.1685
      19    H12     21.417087   18.105871   23.382814 H          1 MOL1         0.0832
      20    H13     21.962915   17.844829   21.741646 H          1 MOL1         0.0832
      21    O1      18.291852   19.895617   21.394872 O.3        1 MOL1        -0.5509
      22    H14     18.114570   19.381478   20.581151 H          1 MOL1         0.3779
@<TRIPOS>BOND
    1     1     2    1
    2     1     3    1
    3     1     4    1
    4     4     5    1
    5     4     6    1
    6     4     7    1
    7     7     8    1
    8     7     9    1
    9     7    10    1
   10    10    11    1
   11    10    12    1
   12    10    13    1
   13    13    14    1
   14    13    15    1
   15    15    16    1
   16    15    17    1
   17     1    18    1
   18    15    18    1
   19    18    19    1
   20    18    20    1
   21    13    21    1
   22    21    22    1
@<TRIPOS>SUBSTRUCTURE
       1 MOL1            1 RESIDUE      1      MOL     
@<SCITEGIC>MOL_PROPERTY
VConf Rank
SciTegic.value.IntegerValue
974

@<SCITEGIC>MOL_PROPERTY
Conf_Id
SciTegic.value.IntegerValue
104

@<SCITEGIC>MOL_PROPERTY
Delta U+W
SciTegic.value.DoubleValue
-1.172

@<SCITEGIC>MOL_PROPERTY
U+W
SciTegic.value.DoubleValue
5.252

@<SCITEGIC>MOL_PROPERTY
Grad RMS
SciTegic.value.DoubleValue
0.000000

@<SCITEGIC>MOL_PROPERTY
U
SciTegic.value.DoubleValue
7.482

@<SCITEGIC>MOL_PROPERTY
W
SciTegic.value.DoubleValue
-2.230

@<SCITEGIC>MOL_PROPERTY
W(PB)
SciTegic.value.DoubleValue
-4.220

@<SCITEGIC>MOL_PROPERTY
W(SA)
SciTegic.value.DoubleValue
1.990

@<SCITEGIC>MOL_PROPERTY
Valence
SciTegic.value.DoubleValue
12.309

@<SCITEGIC>MOL_PROPERTY
Coulomb
SciTegic.value.DoubleValue
-7.084

@<SCITEGIC>MOL_PROPERTY
VdW
SciTegic.value.DoubleValue
2.258

@<SCITEGIC>MOL_PROPERTY
VdW6
SciTegic.value.DoubleValue
-9.770

@<SCITEGIC>MOL_PROPERTY
VdW12
SciTegic.value.DoubleValue
12.028

@<SCITEGIC>MOL_PROPERTY
Bond
SciTegic.value.DoubleValue
0.284

@<SCITEGIC>MOL_PROPERTY
Angle
SciTegic.value.DoubleValue
3.491

@<SCITEGIC>MOL_PROPERTY
Pdih
SciTegic.value.DoubleValue
8.535

@<SCITEGIC>MOL_PROPERTY
Idih
SciTegic.value.DoubleValue
0.000

@<SCITEGIC>MOL_PROPERTY
Tether
SciTegic.value.DoubleValue
0.000

@<TRIPOS>MOLECULE
guest-5_confgen4.mol2 : confsearch ligand conformer 975
          22          22           1
SMALL
USER_CHARGES
 
@<TRIPOS>ATOM
       1    C1      20.985169   18.230292   22.790055 C.3        1 MOL1        -0.1685
       2    H1      21.219228   18.216613   21.716969 H          1 MOL1         0.0832
       3    H2      21.479210   17.347434   23.218337 H          1 MOL1         0.0832
       4    C2      19.464633   18.081888   23.025491 C.3        1 MOL1        -0.1685
       5    H3      19.196452   17.021125   22.924949 H          1 MOL1         0.0832
       6    H4      19.231536   18.336043   24.067800 H          1 MOL1         0.0832
       7    C3      18.554601   18.891496   22.067340 C.3        1 MOL1        -0.1685
       8    H5      17.596793   19.078264   22.572352 H          1 MOL1         0.0832
       9    H6      18.309559   18.258605   21.203434 H          1 MOL1         0.0832
      10    C4      19.112443   20.233546   21.520608 C.3        1 MOL1        -0.1761
      11    H7      19.811026   20.024125   20.700194 H          1 MOL1         0.0832
      12    H8      18.281858   20.782375   21.058095 H          1 MOL1         0.0832
      13    C5      19.804413   21.173852   22.534010 C.3        1 MOL1         0.1218
      14    H9      19.776858   22.188134   22.110509 H          1 MOL1         0.0789
      15    C6      21.292821   20.823668   22.758246 C.3        1 MOL1        -0.1761
      16    H10     21.805545   20.829893   21.787609 H          1 MOL1         0.0832
      17    H11     21.751167   21.634284   23.339679 H          1 MOL1         0.0832
      18    C7      21.587316   19.481444   23.472739 C.3        1 MOL1        -0.1685
      19    H12     22.677813   19.357564   23.519444 H          1 MOL1         0.0832
      20    H13     21.251484   19.534000   24.517216 H          1 MOL1         0.0832
      21    O1      19.109400   21.171520   23.771396 O.3        1 MOL1        -0.5509
      22    H14     19.104384   20.231358   24.040386 H          1 MOL1         0.3779
@<TRIPOS>BOND
    1     1     2    1
    2     1     3    1
    3     1     4    1
    4     4     5    1
    5     4     6    1
    6     4     7    1
    7     7     8    1
    8     7     9    1
    9     7    10    1
   10    10    11    1
   11    10    12    1
   12    10    13    1
   13    13    14    1
   14    13    15    1
   15    15    16    1
   16    15    17    1
   17     1    18    1
   18    15    18    1
   19    18    19    1
   20    18    20    1
   21    13    21    1
   22    21    22    1
@<TRIPOS>SUBSTRUCTURE
       1 MOL1            1 RESIDUE      1      MOL     
@<SCITEGIC>MOL_PROPERTY
VConf Rank
SciTegic.value.IntegerValue
975

@<SCITEGIC>MOL_PROPERTY
Conf_Id
SciTegic.value.IntegerValue
99

@<SCITEGIC>MOL_PROPERTY
Delta U+W
SciTegic.value.DoubleValue
-3.852

@<SCITEGIC>MOL_PROPERTY
U+W
SciTegic.value.DoubleValue
2.572

@<SCITEGIC>MOL_PROPERTY
Grad RMS
SciTegic.value.DoubleValue
0.000000

@<SCITEGIC>MOL_PROPERTY
U
SciTegic.value.DoubleValue
3.922

@<SCITEGIC>MOL_PROPERTY
W
SciTegic.value.DoubleValue
-1.350

@<SCITEGIC>MOL_PROPERTY
W(PB)
SciTegic.value.DoubleValue
-3.345

@<SCITEGIC>MOL_PROPERTY
W(SA)
SciTegic.value.DoubleValue
1.995

@<SCITEGIC>MOL_PROPERTY
Valence
SciTegic.value.DoubleValue
12.571

@<SCITEGIC>MOL_PROPERTY
Coulomb
SciTegic.value.DoubleValue
-10.581

@<SCITEGIC>MOL_PROPERTY
VdW
SciTegic.value.DoubleValue
1.932

@<SCITEGIC>MOL_PROPERTY
VdW6
SciTegic.value.DoubleValue
-10.483

@<SCITEGIC>MOL_PROPERTY
VdW12
SciTegic.value.DoubleValue
12.415

@<SCITEGIC>MOL_PROPERTY
Bond
SciTegic.value.DoubleValue
0.268

@<SCITEGIC>MOL_PROPERTY
Angle
SciTegic.value.DoubleValue
3.728

@<SCITEGIC>MOL_PROPERTY
Pdih
SciTegic.value.DoubleValue
8.575

@<SCITEGIC>MOL_PROPERTY
Idih
SciTegic.value.DoubleValue
0.000

@<SCITEGIC>MOL_PROPERTY
Tether
SciTegic.value.DoubleValue
0.000

@<TRIPOS>MOLECULE
guest-5_confgen4.mol2 : confsearch ligand conformer 976
          22          22           1
SMALL
USER_CHARGES
 
@<TRIPOS>ATOM
       1    C1      21.004828   18.214258   22.554191 C.3        1 MOL1        -0.1685
       2    H1      21.367231   17.336398   22.001635 H          1 MOL1         0.0832
       3    H2      21.532223   18.180326   23.516874 H          1 MOL1         0.0832
       4    C2      19.473511   18.040627   22.775029 C.3        1 MOL1        -0.1685
       5    H3      19.173143   17.087538   22.318202 H          1 MOL1         0.0832
       6    H4      19.256500   17.922442   23.845072 H          1 MOL1         0.0832
       7    C3      18.571559   19.153288   22.182390 C.3        1 MOL1        -0.1685
       8    H5      17.527111   18.816904   22.234337 H          1 MOL1         0.0832
       9    H6      18.773295   19.261224   21.109440 H          1 MOL1         0.0832
      10    C4      18.658643   20.541755   22.874781 C.3        1 MOL1        -0.1761
      11    H7      18.311892   21.302152   22.163233 H          1 MOL1         0.0832
      12    H8      17.933696   20.564127   23.699370 H          1 MOL1         0.0832
      13    C5      20.026787   20.991205   23.444285 C.3        1 MOL1         0.1218
      14    H9      19.939124   22.061855   23.678372 H          1 MOL1         0.0789
      15    C6      21.245813   20.835076   22.502084 C.3        1 MOL1        -0.1761
      16    H10     21.204985   21.630280   21.746621 H          1 MOL1         0.0832
      17    H11     22.148591   21.041744   23.092234 H          1 MOL1         0.0832
      18    C7      21.438605   19.478471   21.769106 C.3        1 MOL1        -0.1685
      19    H12     20.926935   19.505692   20.799044 H          1 MOL1         0.0832
      20    H13     22.503336   19.381254   21.516870 H          1 MOL1         0.0832
      21    O1      20.279443   20.314834   24.665731 O.3        1 MOL1        -0.5509
      22    H14     20.348620   19.374452   24.405288 H          1 MOL1         0.3779
@<TRIPOS>BOND
    1     1     2    1
    2     1     3    1
    3     1     4    1
    4     4     5    1
    5     4     6    1
    6     4     7    1
    7     7     8    1
    8     7     9    1
    9     7    10    1
   10    10    11    1
   11    10    12    1
   12    10    13    1
   13    13    14    1
   14    13    15    1
   15    15    16    1
   16    15    17    1
   17     1    18    1
   18    15    18    1
   19    18    19    1
   20    18    20    1
   21    13    21    1
   22    21    22    1
@<TRIPOS>SUBSTRUCTURE
       1 MOL1            1 RESIDUE      1      MOL     
@<SCITEGIC>MOL_PROPERTY
VConf Rank
SciTegic.value.IntegerValue
976

@<SCITEGIC>MOL_PROPERTY
Conf_Id
SciTegic.value.IntegerValue
98

@<SCITEGIC>MOL_PROPERTY
Delta U+W
SciTegic.value.DoubleValue
0.930

@<SCITEGIC>MOL_PROPERTY
U+W
SciTegic.value.DoubleValue
7.353

@<SCITEGIC>MOL_PROPERTY
Grad RMS
SciTegic.value.DoubleValue
0.000000

@<SCITEGIC>MOL_PROPERTY
U
SciTegic.value.DoubleValue
8.455

@<SCITEGIC>MOL_PROPERTY
W
SciTegic.value.DoubleValue
-1.102

@<SCITEGIC>MOL_PROPERTY
W(PB)
SciTegic.value.DoubleValue
-3.101

@<SCITEGIC>MOL_PROPERTY
W(SA)
SciTegic.value.DoubleValue
2.000

@<SCITEGIC>MOL_PROPERTY
Valence
SciTegic.value.DoubleValue
15.601

@<SCITEGIC>MOL_PROPERTY
Coulomb
SciTegic.value.DoubleValue
-10.573

@<SCITEGIC>MOL_PROPERTY
VdW
SciTegic.value.DoubleValue
3.427

@<SCITEGIC>MOL_PROPERTY
VdW6
SciTegic.value.DoubleValue
-11.360

@<SCITEGIC>MOL_PROPERTY
VdW12
SciTegic.value.DoubleValue
14.787

@<SCITEGIC>MOL_PROPERTY
Bond
SciTegic.value.DoubleValue
0.471

@<SCITEGIC>MOL_PROPERTY
Angle
SciTegic.value.DoubleValue
5.445

@<SCITEGIC>MOL_PROPERTY
Pdih
SciTegic.value.DoubleValue
9.685

@<SCITEGIC>MOL_PROPERTY
Idih
SciTegic.value.DoubleValue
0.000

@<SCITEGIC>MOL_PROPERTY
Tether
SciTegic.value.DoubleValue
0.000

@<TRIPOS>MOLECULE
guest-5_confgen4.mol2 : confsearch ligand conformer 977
          22          22           1
SMALL
USER_CHARGES
 
@<TRIPOS>ATOM
       1    C1      21.596303   19.983497   22.151284 C.3        1 MOL1        -0.1685
       2    H1      21.227890   19.924034   21.119045 H          1 MOL1         0.0832
       3    H2      22.636104   20.326770   22.063578 H          1 MOL1         0.0832
       4    C2      21.595240   18.571385   22.790109 C.3        1 MOL1        -0.1685
       5    H3      22.241823   17.930062   22.175691 H          1 MOL1         0.0832
       6    H4      22.072223   18.614663   23.778663 H          1 MOL1         0.0832
       7    C3      20.210740   17.878108   22.921139 C.3        1 MOL1        -0.1685
       8    H5      19.860069   17.931186   23.959998 H          1 MOL1         0.0832
       9    H6      20.344359   16.806072   22.722342 H          1 MOL1         0.0832
      10    C4      19.109538   18.425611   21.974935 C.3        1 MOL1        -0.1761
      11    H7      19.488976   18.429762   20.945549 H          1 MOL1         0.0832
      12    H8      18.276294   17.710074   21.965043 H          1 MOL1         0.0832
      13    C5      18.556090   19.838920   22.321524 C.3        1 MOL1         0.1218
      14    H9      18.515443   20.424272   21.391590 H          1 MOL1         0.0789
      15    C6      19.367420   20.646398   23.365546 C.3        1 MOL1        -0.1761
      16    H10     18.815596   21.562432   23.613392 H          1 MOL1         0.0832
      17    H11     19.422847   20.083867   24.305268 H          1 MOL1         0.0832
      18    C7      20.794632   21.056795   22.924585 C.3        1 MOL1        -0.1685
      19    H12     20.727610   21.953598   22.293660 H          1 MOL1         0.0832
      20    H13     21.361646   21.357321   23.816129 H          1 MOL1         0.0832
      21    O1      17.234382   19.693401   22.828564 O.3        1 MOL1        -0.5509
      22    H14     16.890026   20.597574   22.983703 H          1 MOL1         0.3779
@<TRIPOS>BOND
    1     1     2    1
    2     1     3    1
    3     1     4    1
    4     4     5    1
    5     4     6    1
    6     4     7    1
    7     7     8    1
    8     7     9    1
    9     7    10    1
   10    10    11    1
   11    10    12    1
   12    10    13    1
   13    13    14    1
   14    13    15    1
   15    15    16    1
   16    15    17    1
   17     1    18    1
   18    15    18    1
   19    18    19    1
   20    18    20    1
   21    13    21    1
   22    21    22    1
@<TRIPOS>SUBSTRUCTURE
       1 MOL1            1 RESIDUE      1      MOL     
@<SCITEGIC>MOL_PROPERTY
VConf Rank
SciTegic.value.IntegerValue
977

@<SCITEGIC>MOL_PROPERTY
Conf_Id
SciTegic.value.IntegerValue
141

@<SCITEGIC>MOL_PROPERTY
Delta U+W
SciTegic.value.DoubleValue
0.000

@<SCITEGIC>MOL_PROPERTY
U+W
SciTegic.value.DoubleValue
6.423

@<SCITEGIC>MOL_PROPERTY
Grad RMS
SciTegic.value.DoubleValue
0.000000

@<SCITEGIC>MOL_PROPERTY
U
SciTegic.value.DoubleValue
8.781

@<SCITEGIC>MOL_PROPERTY
W
SciTegic.value.DoubleValue
-2.358

@<SCITEGIC>MOL_PROPERTY
W(PB)
SciTegic.value.DoubleValue
-4.373

@<SCITEGIC>MOL_PROPERTY
W(SA)
SciTegic.value.DoubleValue
2.015

@<SCITEGIC>MOL_PROPERTY
Valence
SciTegic.value.DoubleValue
13.328

@<SCITEGIC>MOL_PROPERTY
Coulomb
SciTegic.value.DoubleValue
-8.387

@<SCITEGIC>MOL_PROPERTY
VdW
SciTegic.value.DoubleValue
3.840

@<SCITEGIC>MOL_PROPERTY
VdW6
SciTegic.value.DoubleValue
-9.744

@<SCITEGIC>MOL_PROPERTY
VdW12
SciTegic.value.DoubleValue
13.584

@<SCITEGIC>MOL_PROPERTY
Bond
SciTegic.value.DoubleValue
0.436

@<SCITEGIC>MOL_PROPERTY
Angle
SciTegic.value.DoubleValue
3.478

@<SCITEGIC>MOL_PROPERTY
Pdih
SciTegic.value.DoubleValue
9.415

@<SCITEGIC>MOL_PROPERTY
Idih
SciTegic.value.DoubleValue
0.000

@<SCITEGIC>MOL_PROPERTY
Tether
SciTegic.value.DoubleValue
0.000

@<TRIPOS>MOLECULE
guest-5_confgen4.mol2 : confsearch ligand conformer 978
          22          22           1
SMALL
USER_CHARGES
 
@<TRIPOS>ATOM
       1    C1      19.573652   21.193515   23.278529 C.3        1 MOL1        -0.1685
       2    H1      18.690275   21.194067   22.625648 H          1 MOL1         0.0832
       3    H2      19.522706   22.124749   23.859143 H          1 MOL1         0.0832
       4    C2      20.877652   21.230246   22.445529 C.3        1 MOL1        -0.1685
       5    H3      20.952405   22.210684   21.955621 H          1 MOL1         0.0832
       6    H4      21.742506   21.167010   23.119997 H          1 MOL1         0.0832
       7    C3      20.996377   20.137637   21.358129 C.3        1 MOL1        -0.1685
       8    H5      21.985223   20.228233   20.888233 H          1 MOL1         0.0832
       9    H6      20.266687   20.335383   20.561003 H          1 MOL1         0.0832
      10    C4      20.822564   18.686009   21.867783 C.3        1 MOL1        -0.1761
      11    H7      21.154011   18.011324   21.067517 H          1 MOL1         0.0832
      12    H8      21.483857   18.493933   22.722649 H          1 MOL1         0.0832
      13    C5      19.358080   18.352534   22.230700 C.3        1 MOL1         0.1218
      14    H9      18.699058   18.918702   21.556915 H          1 MOL1         0.0789
      15    C6      18.965473   18.687726   23.687684 C.3        1 MOL1        -0.1761
      16    H10     17.869343   18.718616   23.736602 H          1 MOL1         0.0832
      17    H11     19.272751   17.863775   24.345555 H          1 MOL1         0.0832
      18    C7      19.526837   20.008467   24.271259 C.3        1 MOL1        -0.1685
      19    H12     18.906412   20.289429   25.133209 H          1 MOL1         0.0832
      20    H13     20.532144   19.832599   24.677632 H          1 MOL1         0.0832
      21    O1      19.139836   16.962238   22.024144 O.3        1 MOL1        -0.5509
      22    H14     19.321209   16.785632   21.077290 H          1 MOL1         0.3779
@<TRIPOS>BOND
    1     1     2    1
    2     1     3    1
    3     1     4    1
    4     4     5    1
    5     4     6    1
    6     4     7    1
    7     7     8    1
    8     7     9    1
    9     7    10    1
   10    10    11    1
   11    10    12    1
   12    10    13    1
   13    13    14    1
   14    13    15    1
   15    15    16    1
   16    15    17    1
   17     1    18    1
   18    15    18    1
   19    18    19    1
   20    18    20    1
   21    13    21    1
   22    21    22    1
@<TRIPOS>SUBSTRUCTURE
       1 MOL1            1 RESIDUE      1      MOL     
@<SCITEGIC>MOL_PROPERTY
VConf Rank
SciTegic.value.IntegerValue
978

@<SCITEGIC>MOL_PROPERTY
Conf_Id
SciTegic.value.IntegerValue
144

@<SCITEGIC>MOL_PROPERTY
Delta U+W
SciTegic.value.DoubleValue
-3.291

@<SCITEGIC>MOL_PROPERTY
U+W
SciTegic.value.DoubleValue
3.132

@<SCITEGIC>MOL_PROPERTY
Grad RMS
SciTegic.value.DoubleValue
0.000000

@<SCITEGIC>MOL_PROPERTY
U
SciTegic.value.DoubleValue
5.411

@<SCITEGIC>MOL_PROPERTY
W
SciTegic.value.DoubleValue
-2.279

@<SCITEGIC>MOL_PROPERTY
W(PB)
SciTegic.value.DoubleValue
-4.300

@<SCITEGIC>MOL_PROPERTY
W(SA)
SciTegic.value.DoubleValue
2.021

@<SCITEGIC>MOL_PROPERTY
Valence
SciTegic.value.DoubleValue
11.909

@<SCITEGIC>MOL_PROPERTY
Coulomb
SciTegic.value.DoubleValue
-8.733

@<SCITEGIC>MOL_PROPERTY
VdW
SciTegic.value.DoubleValue
2.236

@<SCITEGIC>MOL_PROPERTY
VdW6
SciTegic.value.DoubleValue
-8.936

@<SCITEGIC>MOL_PROPERTY
VdW12
SciTegic.value.DoubleValue
11.172

@<SCITEGIC>MOL_PROPERTY
Bond
SciTegic.value.DoubleValue
0.223

@<SCITEGIC>MOL_PROPERTY
Angle
SciTegic.value.DoubleValue
2.457

@<SCITEGIC>MOL_PROPERTY
Pdih
SciTegic.value.DoubleValue
9.228

@<SCITEGIC>MOL_PROPERTY
Idih
SciTegic.value.DoubleValue
0.000

@<SCITEGIC>MOL_PROPERTY
Tether
SciTegic.value.DoubleValue
0.000

@<TRIPOS>MOLECULE
guest-5_confgen4.mol2 : confsearch ligand conformer 979
          22          22           1
SMALL
USER_CHARGES
 
@<TRIPOS>ATOM
       1    C1      18.647104   18.486975   23.095607 C.3        1 MOL1        -0.1685
       2    H1      18.046061   17.611936   23.378353 H          1 MOL1         0.0832
       3    H2      17.950539   19.335654   23.060650 H          1 MOL1         0.0832
       4    C2      19.257659   18.217313   21.700408 C.3        1 MOL1        -0.1685
       5    H3      20.165404   17.608424   21.810075 H          1 MOL1         0.0832
       6    H4      18.558892   17.599227   21.120155 H          1 MOL1         0.0832
       7    C3      19.578415   19.482668   20.868594 C.3        1 MOL1        -0.1685
       8    H5      18.665316   19.813922   20.355332 H          1 MOL1         0.0832
       9    H6      20.281710   19.200227   20.073219 H          1 MOL1         0.0832
      10    C4      20.157495   20.688660   21.648586 C.3        1 MOL1        -0.1761
      11    H7      20.635833   21.359813   20.922488 H          1 MOL1         0.0832
      12    H8      19.332070   21.264261   22.087052 H          1 MOL1         0.0832
      13    C5      21.169994   20.322249   22.756820 C.3        1 MOL1         0.1218
      14    H9      21.754210   19.444355   22.446238 H          1 MOL1         0.0789
      15    C6      20.486238   20.036703   24.113257 C.3        1 MOL1        -0.1761
      16    H10     21.252483   20.035742   24.900021 H          1 MOL1         0.0832
      17    H11     19.801008   20.858594   24.358292 H          1 MOL1         0.0832
      18    C7      19.718636   18.695727   24.192527 C.3        1 MOL1        -0.1685
      19    H12     20.435576   17.863756   24.165204 H          1 MOL1         0.0832
      20    H13     19.230238   18.637541   25.174805 H          1 MOL1         0.0832
      21    O1      22.053161   21.421350   22.936277 O.3        1 MOL1        -0.5509
      22    H14     21.498029   22.180530   23.209468 H          1 MOL1         0.3779
@<TRIPOS>BOND
    1     1     2    1
    2     1     3    1
    3     1     4    1
    4     4     5    1
    5     4     6    1
    6     4     7    1
    7     7     8    1
    8     7     9    1
    9     7    10    1
   10    10    11    1
   11    10    12    1
   12    10    13    1
   13    13    14    1
   14    13    15    1
   15    15    16    1
   16    15    17    1
   17     1    18    1
   18    15    18    1
   19    18    19    1
   20    18    20    1
   21    13    21    1
   22    21    22    1
@<TRIPOS>SUBSTRUCTURE
       1 MOL1            1 RESIDUE      1      MOL     
@<SCITEGIC>MOL_PROPERTY
VConf Rank
SciTegic.value.IntegerValue
979

@<SCITEGIC>MOL_PROPERTY
Conf_Id
SciTegic.value.IntegerValue
76

@<SCITEGIC>MOL_PROPERTY
Delta U+W
SciTegic.value.DoubleValue
-3.175

@<SCITEGIC>MOL_PROPERTY
U+W
SciTegic.value.DoubleValue
3.248

@<SCITEGIC>MOL_PROPERTY
Grad RMS
SciTegic.value.DoubleValue
0.000000

@<SCITEGIC>MOL_PROPERTY
U
SciTegic.value.DoubleValue
5.336

@<SCITEGIC>MOL_PROPERTY
W
SciTegic.value.DoubleValue
-2.088

@<SCITEGIC>MOL_PROPERTY
W(PB)
SciTegic.value.DoubleValue
-4.098

@<SCITEGIC>MOL_PROPERTY
W(SA)
SciTegic.value.DoubleValue
2.010

@<SCITEGIC>MOL_PROPERTY
Valence
SciTegic.value.DoubleValue
12.390

@<SCITEGIC>MOL_PROPERTY
Coulomb
SciTegic.value.DoubleValue
-9.270

@<SCITEGIC>MOL_PROPERTY
VdW
SciTegic.value.DoubleValue
2.216

@<SCITEGIC>MOL_PROPERTY
VdW6
SciTegic.value.DoubleValue
-8.967

@<SCITEGIC>MOL_PROPERTY
VdW12
SciTegic.value.DoubleValue
11.183

@<SCITEGIC>MOL_PROPERTY
Bond
SciTegic.value.DoubleValue
0.218

@<SCITEGIC>MOL_PROPERTY
Angle
SciTegic.value.DoubleValue
2.426

@<SCITEGIC>MOL_PROPERTY
Pdih
SciTegic.value.DoubleValue
9.745

@<SCITEGIC>MOL_PROPERTY
Idih
SciTegic.value.DoubleValue
0.000

@<SCITEGIC>MOL_PROPERTY
Tether
SciTegic.value.DoubleValue
0.000

@<TRIPOS>MOLECULE
guest-5_confgen4.mol2 : confsearch ligand conformer 980
          22          22           1
SMALL
USER_CHARGES
 
@<TRIPOS>ATOM
       1    C1      18.431720   19.000774   23.413920 C.3        1 MOL1        -0.1685
       2    H1      18.150544   17.982379   23.714906 H          1 MOL1         0.0832
       3    H2      17.586622   19.640795   23.702013 H          1 MOL1         0.0832
       4    C2      18.578406   19.027103   21.873640 C.3        1 MOL1        -0.1685
       5    H3      19.009055   18.076842   21.530095 H          1 MOL1         0.0832
       6    H4      17.571000   19.067572   21.437430 H          1 MOL1         0.0832
       7    C3      19.414701   20.202346   21.316004 C.3        1 MOL1        -0.1685
       8    H5      19.235030   21.120988   21.891025 H          1 MOL1         0.0832
       9    H6      19.071052   20.410637   20.293844 H          1 MOL1         0.0832
      10    C4      20.929563   19.881867   21.248412 C.3        1 MOL1        -0.1761
      11    H7      21.073013   18.924172   20.731929 H          1 MOL1         0.0832
      12    H8      21.418792   20.634070   20.615751 H          1 MOL1         0.0832
      13    C5      21.678914   19.835752   22.599501 C.3        1 MOL1         0.1218
      14    H9      22.677384   19.423377   22.394316 H          1 MOL1         0.0789
      15    C6      21.029360   18.939050   23.683242 C.3        1 MOL1        -0.1761
      16    H10     20.923253   17.914525   23.303812 H          1 MOL1         0.0832
      17    H11     21.733097   18.872130   24.522923 H          1 MOL1         0.0832
      18    C7      19.669144   19.445746   24.229400 C.3        1 MOL1        -0.1685
      19    H12     19.543520   19.081802   25.258081 H          1 MOL1         0.0832
      20    H13     19.678984   20.540824   24.307807 H          1 MOL1         0.0832
      21    O1      21.839631   21.161860   23.093091 O.3        1 MOL1        -0.5509
      22    H14     22.269436   21.083198   23.969084 H          1 MOL1         0.3779
@<TRIPOS>BOND
    1     1     2    1
    2     1     3    1
    3     1     4    1
    4     4     5    1
    5     4     6    1
    6     4     7    1
    7     7     8    1
    8     7     9    1
    9     7    10    1
   10    10    11    1
   11    10    12    1
   12    10    13    1
   13    13    14    1
   14    13    15    1
   15    15    16    1
   16    15    17    1
   17     1    18    1
   18    15    18    1
   19    18    19    1
   20    18    20    1
   21    13    21    1
   22    21    22    1
@<TRIPOS>SUBSTRUCTURE
       1 MOL1            1 RESIDUE      1      MOL     
@<SCITEGIC>MOL_PROPERTY
VConf Rank
SciTegic.value.IntegerValue
980

@<SCITEGIC>MOL_PROPERTY
Conf_Id
SciTegic.value.IntegerValue
95

@<SCITEGIC>MOL_PROPERTY
Delta U+W
SciTegic.value.DoubleValue
-2.289

@<SCITEGIC>MOL_PROPERTY
U+W
SciTegic.value.DoubleValue
4.134

@<SCITEGIC>MOL_PROPERTY
Grad RMS
SciTegic.value.DoubleValue
0.000000

@<SCITEGIC>MOL_PROPERTY
U
SciTegic.value.DoubleValue
6.373

@<SCITEGIC>MOL_PROPERTY
W
SciTegic.value.DoubleValue
-2.240

@<SCITEGIC>MOL_PROPERTY
W(PB)
SciTegic.value.DoubleValue
-4.254

@<SCITEGIC>MOL_PROPERTY
W(SA)
SciTegic.value.DoubleValue
2.015

@<SCITEGIC>MOL_PROPERTY
Valence
SciTegic.value.DoubleValue
12.093

@<SCITEGIC>MOL_PROPERTY
Coulomb
SciTegic.value.DoubleValue
-8.058

@<SCITEGIC>MOL_PROPERTY
VdW
SciTegic.value.DoubleValue
2.339

@<SCITEGIC>MOL_PROPERTY
VdW6
SciTegic.value.DoubleValue
-9.683

@<SCITEGIC>MOL_PROPERTY
VdW12
SciTegic.value.DoubleValue
12.022

@<SCITEGIC>MOL_PROPERTY
Bond
SciTegic.value.DoubleValue
0.268

@<SCITEGIC>MOL_PROPERTY
Angle
SciTegic.value.DoubleValue
3.005

@<SCITEGIC>MOL_PROPERTY
Pdih
SciTegic.value.DoubleValue
8.820

@<SCITEGIC>MOL_PROPERTY
Idih
SciTegic.value.DoubleValue
0.000

@<SCITEGIC>MOL_PROPERTY
Tether
SciTegic.value.DoubleValue
0.000

@<TRIPOS>MOLECULE
guest-5_confgen4.mol2 : confsearch ligand conformer 981
          22          22           1
SMALL
USER_CHARGES
 
@<TRIPOS>ATOM
       1    C1      20.016011   20.096114   24.559968 C.3        1 MOL1        -0.1685
       2    H1      20.869780   20.323094   25.212894 H          1 MOL1         0.0832
       3    H2      19.120864   20.231055   25.182296 H          1 MOL1         0.0832
       4    C2      20.112244   18.611042   24.136142 C.3        1 MOL1        -0.1685
       5    H3      21.166985   18.337885   23.996903 H          1 MOL1         0.0832
       6    H4      19.758041   17.995410   24.974197 H          1 MOL1         0.0832
       7    C3      19.312025   18.238729   22.866280 C.3        1 MOL1        -0.1685
       8    H5      18.358424   18.782843   22.828819 H          1 MOL1         0.0832
       9    H6      19.052884   17.173128   22.927643 H          1 MOL1         0.0832
      10    C4      20.124157   18.453018   21.564039 C.3        1 MOL1        -0.1761
      11    H7      21.103985   17.969340   21.668393 H          1 MOL1         0.0832
      12    H8      19.622406   17.920311   20.745839 H          1 MOL1         0.0832
      13    C5      20.340906   19.920529   21.129107 C.3        1 MOL1         0.1218
      14    H9      21.069252   19.903420   20.305505 H          1 MOL1         0.0789
      15    C6      20.915878   20.853175   22.224513 C.3        1 MOL1        -0.1761
      16    H10     21.871186   20.456174   22.590936 H          1 MOL1         0.0832
      17    H11     21.153916   21.810463   21.743092 H          1 MOL1         0.0832
      18    C7      19.963992   21.136524   23.415759 C.3        1 MOL1        -0.1685
      19    H12     20.213603   22.118010   23.840725 H          1 MOL1         0.0832
      20    H13     18.931612   21.231537   23.054118 H          1 MOL1         0.0832
      21    O1      19.117240   20.450259   20.628189 O.3        1 MOL1        -0.5509
      22    H14     18.790945   19.817757   19.956134 H          1 MOL1         0.3779
@<TRIPOS>BOND
    1     1     2    1
    2     1     3    1
    3     1     4    1
    4     4     5    1
    5     4     6    1
    6     4     7    1
    7     7     8    1
    8     7     9    1
    9     7    10    1
   10    10    11    1
   11    10    12    1
   12    10    13    1
   13    13    14    1
   14    13    15    1
   15    15    16    1
   16    15    17    1
   17     1    18    1
   18    15    18    1
   19    18    19    1
   20    18    20    1
   21    13    21    1
   22    21    22    1
@<TRIPOS>SUBSTRUCTURE
       1 MOL1            1 RESIDUE      1      MOL     
@<SCITEGIC>MOL_PROPERTY
VConf Rank
SciTegic.value.IntegerValue
981

@<SCITEGIC>MOL_PROPERTY
Conf_Id
SciTegic.value.IntegerValue
41

@<SCITEGIC>MOL_PROPERTY
Delta U+W
SciTegic.value.DoubleValue
-2.114

@<SCITEGIC>MOL_PROPERTY
U+W
SciTegic.value.DoubleValue
4.310

@<SCITEGIC>MOL_PROPERTY
Grad RMS
SciTegic.value.DoubleValue
0.000000

@<SCITEGIC>MOL_PROPERTY
U
SciTegic.value.DoubleValue
6.598

@<SCITEGIC>MOL_PROPERTY
W
SciTegic.value.DoubleValue
-2.289

@<SCITEGIC>MOL_PROPERTY
W(PB)
SciTegic.value.DoubleValue
-4.294

@<SCITEGIC>MOL_PROPERTY
W(SA)
SciTegic.value.DoubleValue
2.005

@<SCITEGIC>MOL_PROPERTY
Valence
SciTegic.value.DoubleValue
12.082

@<SCITEGIC>MOL_PROPERTY
Coulomb
SciTegic.value.DoubleValue
-7.801

@<SCITEGIC>MOL_PROPERTY
VdW
SciTegic.value.DoubleValue
2.317

@<SCITEGIC>MOL_PROPERTY
VdW6
SciTegic.value.DoubleValue
-9.658

@<SCITEGIC>MOL_PROPERTY
VdW12
SciTegic.value.DoubleValue
11.975

@<SCITEGIC>MOL_PROPERTY
Bond
SciTegic.value.DoubleValue
0.267

@<SCITEGIC>MOL_PROPERTY
Angle
SciTegic.value.DoubleValue
3.051

@<SCITEGIC>MOL_PROPERTY
Pdih
SciTegic.value.DoubleValue
8.764

@<SCITEGIC>MOL_PROPERTY
Idih
SciTegic.value.DoubleValue
0.000

@<SCITEGIC>MOL_PROPERTY
Tether
SciTegic.value.DoubleValue
0.000

@<TRIPOS>MOLECULE
guest-5_confgen4.mol2 : confsearch ligand conformer 982
          22          22           1
SMALL
USER_CHARGES
 
@<TRIPOS>ATOM
       1    C1      19.989602   17.883037   22.883734 C.3        1 MOL1        -0.1685
       2    H1      19.669045   16.836748   22.978978 H          1 MOL1         0.0832
       3    H2      21.045961   17.855345   22.582874 H          1 MOL1         0.0832
       4    C2      19.832642   18.554468   24.266459 C.3        1 MOL1        -0.1685
       5    H3      18.766475   18.628296   24.520269 H          1 MOL1         0.0832
       6    H4      20.278586   17.899429   25.027128 H          1 MOL1         0.0832
       7    C3      20.488007   19.947984   24.384069 C.3        1 MOL1        -0.1685
       8    H5      21.580239   19.842956   24.340617 H          1 MOL1         0.0832
       9    H6      20.270133   20.340808   25.386240 H          1 MOL1         0.0832
      10    C4      20.012729   20.991209   23.336702 C.3        1 MOL1        -0.1761
      11    H7      18.916523   21.040745   23.325001 H          1 MOL1         0.0832
      12    H8      20.350339   21.979131   23.675247 H          1 MOL1         0.0832
      13    C5      20.546047   20.796195   21.893936 C.3        1 MOL1         0.1218
      14    H9      20.396347   21.751704   21.370609 H          1 MOL1         0.0789
      15    C6      19.820665   19.720899   21.043820 C.3        1 MOL1        -0.1761
      16    H10     19.056127   20.226061   20.439374 H          1 MOL1         0.0832
      17    H11     20.529514   19.300117   20.318598 H          1 MOL1         0.0832
      18    C7      19.127660   18.555486   21.792456 C.3        1 MOL1        -0.1685
      19    H12     18.180849   18.902446   22.227866 H          1 MOL1         0.0832
      20    H13     18.848882   17.797114   21.048257 H          1 MOL1         0.0832
      21    O1      21.945848   20.529448   21.911877 O.3        1 MOL1        -0.5509
      22    H14     22.231668   20.456007   20.978698 H          1 MOL1         0.3779
@<TRIPOS>BOND
    1     1     2    1
    2     1     3    1
    3     1     4    1
    4     4     5    1
    5     4     6    1
    6     4     7    1
    7     7     8    1
    8     7     9    1
    9     7    10    1
   10    10    11    1
   11    10    12    1
   12    10    13    1
   13    13    14    1
   14    13    15    1
   15    15    16    1
   16    15    17    1
   17     1    18    1
   18    15    18    1
   19    18    19    1
   20    18    20    1
   21    13    21    1
   22    21    22    1
@<TRIPOS>SUBSTRUCTURE
       1 MOL1            1 RESIDUE      1      MOL     
@<SCITEGIC>MOL_PROPERTY
VConf Rank
SciTegic.value.IntegerValue
982

@<SCITEGIC>MOL_PROPERTY
Conf_Id
SciTegic.value.IntegerValue
104

@<SCITEGIC>MOL_PROPERTY
Delta U+W
SciTegic.value.DoubleValue
-1.172

@<SCITEGIC>MOL_PROPERTY
U+W
SciTegic.value.DoubleValue
5.252

@<SCITEGIC>MOL_PROPERTY
Grad RMS
SciTegic.value.DoubleValue
0.000000

@<SCITEGIC>MOL_PROPERTY
U
SciTegic.value.DoubleValue
7.482

@<SCITEGIC>MOL_PROPERTY
W
SciTegic.value.DoubleValue
-2.230

@<SCITEGIC>MOL_PROPERTY
W(PB)
SciTegic.value.DoubleValue
-4.220

@<SCITEGIC>MOL_PROPERTY
W(SA)
SciTegic.value.DoubleValue
1.990

@<SCITEGIC>MOL_PROPERTY
Valence
SciTegic.value.DoubleValue
12.309

@<SCITEGIC>MOL_PROPERTY
Coulomb
SciTegic.value.DoubleValue
-7.084

@<SCITEGIC>MOL_PROPERTY
VdW
SciTegic.value.DoubleValue
2.258

@<SCITEGIC>MOL_PROPERTY
VdW6
SciTegic.value.DoubleValue
-9.770

@<SCITEGIC>MOL_PROPERTY
VdW12
SciTegic.value.DoubleValue
12.028

@<SCITEGIC>MOL_PROPERTY
Bond
SciTegic.value.DoubleValue
0.284

@<SCITEGIC>MOL_PROPERTY
Angle
SciTegic.value.DoubleValue
3.491

@<SCITEGIC>MOL_PROPERTY
Pdih
SciTegic.value.DoubleValue
8.535

@<SCITEGIC>MOL_PROPERTY
Idih
SciTegic.value.DoubleValue
0.000

@<SCITEGIC>MOL_PROPERTY
Tether
SciTegic.value.DoubleValue
0.000

@<TRIPOS>MOLECULE
guest-5_confgen4.mol2 : confsearch ligand conformer 983
          22          22           1
SMALL
USER_CHARGES
 
@<TRIPOS>ATOM
       1    C1      19.181474   20.195708   23.916994 C.3        1 MOL1        -0.1685
       2    H1      18.914023   21.108056   23.366925 H          1 MOL1         0.0832
       3    H2      18.723787   20.296838   24.910591 H          1 MOL1         0.0832
       4    C2      20.711970   20.095643   24.109479 C.3        1 MOL1        -0.1685
       5    H3      21.003671   20.749168   24.943185 H          1 MOL1         0.0832
       6    H4      20.971385   19.081272   24.439769 H          1 MOL1         0.0832
       7    C3      21.570410   20.487471   22.880159 C.3        1 MOL1        -0.1685
       8    H5      22.538659   19.973313   22.953985 H          1 MOL1         0.0832
       9    H6      21.803994   21.558881   22.946839 H          1 MOL1         0.0832
      10    C4      20.961681   20.228110   21.475388 C.3        1 MOL1        -0.1761
      11    H7      20.243044   21.024696   21.243080 H          1 MOL1         0.0832
      12    H8      21.763029   20.338290   20.733294 H          1 MOL1         0.0832
      13    C5      20.278462   18.860548   21.245243 C.3        1 MOL1         0.1218
      14    H9      20.266862   18.679201   20.160872 H          1 MOL1         0.0789
      15    C6      18.807256   18.837521   21.717778 C.3        1 MOL1        -0.1761
      16    H10     18.264102   19.648871   21.216023 H          1 MOL1         0.0832
      17    H11     18.347100   17.907700   21.358705 H          1 MOL1         0.0832
      18    C7      18.569658   18.943696   23.244561 C.3        1 MOL1        -0.1685
      19    H12     17.484678   18.955679   23.415987 H          1 MOL1         0.0832
      20    H13     18.936907   18.036206   23.742626 H          1 MOL1         0.0832
      21    O1      21.012090   17.823790   21.878561 O.3        1 MOL1        -0.5509
      22    H14     21.049466   18.096862   22.816815 H          1 MOL1         0.3779
@<TRIPOS>BOND
    1     1     2    1
    2     1     3    1
    3     1     4    1
    4     4     5    1
    5     4     6    1
    6     4     7    1
    7     7     8    1
    8     7     9    1
    9     7    10    1
   10    10    11    1
   11    10    12    1
   12    10    13    1
   13    13    14    1
   14    13    15    1
   15    15    16    1
   16    15    17    1
   17     1    18    1
   18    15    18    1
   19    18    19    1
   20    18    20    1
   21    13    21    1
   22    21    22    1
@<TRIPOS>SUBSTRUCTURE
       1 MOL1            1 RESIDUE      1      MOL     
@<SCITEGIC>MOL_PROPERTY
VConf Rank
SciTegic.value.IntegerValue
983

@<SCITEGIC>MOL_PROPERTY
Conf_Id
SciTegic.value.IntegerValue
99

@<SCITEGIC>MOL_PROPERTY
Delta U+W
SciTegic.value.DoubleValue
-3.852

@<SCITEGIC>MOL_PROPERTY
U+W
SciTegic.value.DoubleValue
2.572

@<SCITEGIC>MOL_PROPERTY
Grad RMS
SciTegic.value.DoubleValue
0.000000

@<SCITEGIC>MOL_PROPERTY
U
SciTegic.value.DoubleValue
3.922

@<SCITEGIC>MOL_PROPERTY
W
SciTegic.value.DoubleValue
-1.350

@<SCITEGIC>MOL_PROPERTY
W(PB)
SciTegic.value.DoubleValue
-3.345

@<SCITEGIC>MOL_PROPERTY
W(SA)
SciTegic.value.DoubleValue
1.995

@<SCITEGIC>MOL_PROPERTY
Valence
SciTegic.value.DoubleValue
12.571

@<SCITEGIC>MOL_PROPERTY
Coulomb
SciTegic.value.DoubleValue
-10.581

@<SCITEGIC>MOL_PROPERTY
VdW
SciTegic.value.DoubleValue
1.932

@<SCITEGIC>MOL_PROPERTY
VdW6
SciTegic.value.DoubleValue
-10.483

@<SCITEGIC>MOL_PROPERTY
VdW12
SciTegic.value.DoubleValue
12.415

@<SCITEGIC>MOL_PROPERTY
Bond
SciTegic.value.DoubleValue
0.268

@<SCITEGIC>MOL_PROPERTY
Angle
SciTegic.value.DoubleValue
3.728

@<SCITEGIC>MOL_PROPERTY
Pdih
SciTegic.value.DoubleValue
8.575

@<SCITEGIC>MOL_PROPERTY
Idih
SciTegic.value.DoubleValue
0.000

@<SCITEGIC>MOL_PROPERTY
Tether
SciTegic.value.DoubleValue
0.000

@<TRIPOS>MOLECULE
guest-5_confgen4.mol2 : confsearch ligand conformer 984
          22          22           1
SMALL
USER_CHARGES
 
@<TRIPOS>ATOM
       1    C1      19.020681   18.316636   22.878384 C.3        1 MOL1        -0.1685
       2    H1      18.253641   17.774721   23.448707 H          1 MOL1         0.0832
       3    H2      19.160699   17.727906   21.961952 H          1 MOL1         0.0832
       4    C2      20.330064   18.317659   23.720623 C.3        1 MOL1        -0.1685
       5    H3      20.129811   17.776045   24.655419 H          1 MOL1         0.0832
       6    H4      21.106630   17.729554   23.213543 H          1 MOL1         0.0832
       7    C3      20.895861   19.711536   24.094429 C.3        1 MOL1        -0.1685
       8    H5      21.692199   19.573985   24.838506 H          1 MOL1         0.0832
       9    H6      20.127841   20.294863   24.617349 H          1 MOL1         0.0832
      10    C4      21.480554   20.546384   22.921402 C.3        1 MOL1        -0.1761
      11    H7      21.474588   21.603558   23.216511 H          1 MOL1         0.0832
      12    H8      22.540432   20.284107   22.803648 H          1 MOL1         0.0832
      13    C5      20.812014   20.422212   21.530074 C.3        1 MOL1         0.1218
      14    H9      21.209909   21.238688   20.910541 H          1 MOL1         0.0789
      15    C6      19.268579   20.544430   21.498183 C.3        1 MOL1        -0.1761
      16    H10     19.001168   21.601402   21.624841 H          1 MOL1         0.0832
      17    H11     18.936769   20.280689   20.485099 H          1 MOL1         0.0832
      18    C7      18.444464   19.709615   22.517359 C.3        1 MOL1        -0.1685
      19    H12     18.286490   20.293566   23.432571 H          1 MOL1         0.0832
      20    H13     17.437304   19.570670   22.101367 H          1 MOL1         0.0832
      21    O1      21.205777   19.203331   20.919729 O.3        1 MOL1        -0.5509
      22    H14     20.830395   18.514342   21.503951 H          1 MOL1         0.3779
@<TRIPOS>BOND
    1     1     2    1
    2     1     3    1
    3     1     4    1
    4     4     5    1
    5     4     6    1
    6     4     7    1
    7     7     8    1
    8     7     9    1
    9     7    10    1
   10    10    11    1
   11    10    12    1
   12    10    13    1
   13    13    14    1
   14    13    15    1
   15    15    16    1
   16    15    17    1
   17     1    18    1
   18    15    18    1
   19    18    19    1
   20    18    20    1
   21    13    21    1
   22    21    22    1
@<TRIPOS>SUBSTRUCTURE
       1 MOL1            1 RESIDUE      1      MOL     
@<SCITEGIC>MOL_PROPERTY
VConf Rank
SciTegic.value.IntegerValue
984

@<SCITEGIC>MOL_PROPERTY
Conf_Id
SciTegic.value.IntegerValue
98

@<SCITEGIC>MOL_PROPERTY
Delta U+W
SciTegic.value.DoubleValue
0.930

@<SCITEGIC>MOL_PROPERTY
U+W
SciTegic.value.DoubleValue
7.353

@<SCITEGIC>MOL_PROPERTY
Grad RMS
SciTegic.value.DoubleValue
0.000000

@<SCITEGIC>MOL_PROPERTY
U
SciTegic.value.DoubleValue
8.455

@<SCITEGIC>MOL_PROPERTY
W
SciTegic.value.DoubleValue
-1.102

@<SCITEGIC>MOL_PROPERTY
W(PB)
SciTegic.value.DoubleValue
-3.101

@<SCITEGIC>MOL_PROPERTY
W(SA)
SciTegic.value.DoubleValue
2.000

@<SCITEGIC>MOL_PROPERTY
Valence
SciTegic.value.DoubleValue
15.601

@<SCITEGIC>MOL_PROPERTY
Coulomb
SciTegic.value.DoubleValue
-10.573

@<SCITEGIC>MOL_PROPERTY
VdW
SciTegic.value.DoubleValue
3.427

@<SCITEGIC>MOL_PROPERTY
VdW6
SciTegic.value.DoubleValue
-11.360

@<SCITEGIC>MOL_PROPERTY
VdW12
SciTegic.value.DoubleValue
14.787

@<SCITEGIC>MOL_PROPERTY
Bond
SciTegic.value.DoubleValue
0.471

@<SCITEGIC>MOL_PROPERTY
Angle
SciTegic.value.DoubleValue
5.445

@<SCITEGIC>MOL_PROPERTY
Pdih
SciTegic.value.DoubleValue
9.685

@<SCITEGIC>MOL_PROPERTY
Idih
SciTegic.value.DoubleValue
0.000

@<SCITEGIC>MOL_PROPERTY
Tether
SciTegic.value.DoubleValue
0.000

@<TRIPOS>MOLECULE
guest-5_confgen4.mol2 : confsearch ligand conformer 985
          22          22           1
SMALL
USER_CHARGES
 
@<TRIPOS>ATOM
       1    C1      18.470612   18.780918   22.654277 C.3        1 MOL1        -0.1685
       2    H1      18.913222   17.991594   22.033114 H          1 MOL1         0.0832
       3    H2      17.436059   18.457262   22.832204 H          1 MOL1         0.0832
       4    C2      18.441450   20.114369   21.864835 C.3        1 MOL1        -0.1685
       5    H3      17.848164   19.947300   20.955454 H          1 MOL1         0.0832
       6    H4      17.893897   20.871613   22.442234 H          1 MOL1         0.0832
       7    C3      19.820595   20.692739   21.442824 C.3        1 MOL1        -0.1685
       8    H5      20.094741   21.528975   22.099001 H          1 MOL1         0.0832
       9    H6      19.713746   21.139637   20.445076 H          1 MOL1         0.0832
      10    C4      20.980994   19.663309   21.404684 C.3        1 MOL1        -0.1761
      11    H7      20.676829   18.800397   20.799297 H          1 MOL1         0.0832
      12    H8      21.820778   20.110399   20.855811 H          1 MOL1         0.0832
      13    C5      21.492040   19.163002   22.787578 C.3        1 MOL1         0.1218
      14    H9      21.593119   18.069299   22.735970 H          1 MOL1         0.0789
      15    C6      20.598429   19.508649   24.005053 C.3        1 MOL1        -0.1761
      16    H10     21.120579   19.213484   24.924452 H          1 MOL1         0.0832
      17    H11     20.481647   20.596448   24.080190 H          1 MOL1         0.0832
      18    C7      19.202243   18.837566   24.015948 C.3        1 MOL1        -0.1685
      19    H12     19.304537   17.810374   24.391750 H          1 MOL1         0.0832
      20    H13     18.569006   19.362979   24.743701 H          1 MOL1         0.0832
      21    O1      22.775253   19.730227   23.025899 O.3        1 MOL1        -0.5509
      22    H14     23.097316   19.355264   23.871983 H          1 MOL1         0.3779
@<TRIPOS>BOND
    1     1     2    1
    2     1     3    1
    3     1     4    1
    4     4     5    1
    5     4     6    1
    6     4     7    1
    7     7     8    1
    8     7     9    1
    9     7    10    1
   10    10    11    1
   11    10    12    1
   12    10    13    1
   13    13    14    1
   14    13    15    1
   15    15    16    1
   16    15    17    1
   17     1    18    1
   18    15    18    1
   19    18    19    1
   20    18    20    1
   21    13    21    1
   22    21    22    1
@<TRIPOS>SUBSTRUCTURE
       1 MOL1            1 RESIDUE      1      MOL     
@<SCITEGIC>MOL_PROPERTY
VConf Rank
SciTegic.value.IntegerValue
985

@<SCITEGIC>MOL_PROPERTY
Conf_Id
SciTegic.value.IntegerValue
141

@<SCITEGIC>MOL_PROPERTY
Delta U+W
SciTegic.value.DoubleValue
0.000

@<SCITEGIC>MOL_PROPERTY
U+W
SciTegic.value.DoubleValue
6.423

@<SCITEGIC>MOL_PROPERTY
Grad RMS
SciTegic.value.DoubleValue
0.000000

@<SCITEGIC>MOL_PROPERTY
U
SciTegic.value.DoubleValue
8.781

@<SCITEGIC>MOL_PROPERTY
W
SciTegic.value.DoubleValue
-2.358

@<SCITEGIC>MOL_PROPERTY
W(PB)
SciTegic.value.DoubleValue
-4.373

@<SCITEGIC>MOL_PROPERTY
W(SA)
SciTegic.value.DoubleValue
2.015

@<SCITEGIC>MOL_PROPERTY
Valence
SciTegic.value.DoubleValue
13.328

@<SCITEGIC>MOL_PROPERTY
Coulomb
SciTegic.value.DoubleValue
-8.387

@<SCITEGIC>MOL_PROPERTY
VdW
SciTegic.value.DoubleValue
3.840

@<SCITEGIC>MOL_PROPERTY
VdW6
SciTegic.value.DoubleValue
-9.744

@<SCITEGIC>MOL_PROPERTY
VdW12
SciTegic.value.DoubleValue
13.584

@<SCITEGIC>MOL_PROPERTY
Bond
SciTegic.value.DoubleValue
0.436

@<SCITEGIC>MOL_PROPERTY
Angle
SciTegic.value.DoubleValue
3.478

@<SCITEGIC>MOL_PROPERTY
Pdih
SciTegic.value.DoubleValue
9.415

@<SCITEGIC>MOL_PROPERTY
Idih
SciTegic.value.DoubleValue
0.000

@<SCITEGIC>MOL_PROPERTY
Tether
SciTegic.value.DoubleValue
0.000

@<TRIPOS>MOLECULE
guest-5_confgen4.mol2 : confsearch ligand conformer 986
          22          22           1
SMALL
USER_CHARGES
 
@<TRIPOS>ATOM
       1    C1      20.490068   20.901736   23.724520 C.3        1 MOL1        -0.1685
       2    H1      19.455275   21.270212   23.730624 H          1 MOL1         0.0832
       3    H2      21.048917   21.554594   24.408894 H          1 MOL1         0.0832
       4    C2      21.120671   21.045776   22.318374 C.3        1 MOL1        -0.1685
       5    H3      21.254200   22.114637   22.102592 H          1 MOL1         0.0832
       6    H4      22.131038   20.614534   22.326488 H          1 MOL1         0.0832
       7    C3      20.306456   20.418787   21.163268 C.3        1 MOL1        -0.1685
       8    H5      20.887117   20.526884   20.237000 H          1 MOL1         0.0832
       9    H6      19.385978   20.998377   21.009141 H          1 MOL1         0.0832
      10    C4      19.949245   18.924014   21.350979 C.3        1 MOL1        -0.1761
      11    H7      19.587182   18.545546   20.386014 H          1 MOL1         0.0832
      12    H8      20.846250   18.338746   21.591483 H          1 MOL1         0.0832
      13    C5      18.855353   18.701720   22.419441 C.3        1 MOL1         0.1218
      14    H9      18.174587   19.564862   22.399770 H          1 MOL1         0.0789
      15    C6      19.389527   18.538151   23.860691 C.3        1 MOL1        -0.1761
      16    H10     18.550138   18.710740   24.546613 H          1 MOL1         0.0832
      17    H11     19.697071   17.495680   24.018115 H          1 MOL1         0.0832
      18    C7      20.566110   19.457696   24.273163 C.3        1 MOL1        -0.1685
      19    H12     20.599661   19.494312   25.370595 H          1 MOL1         0.0832
      20    H13     21.515866   18.999609   23.965218 H          1 MOL1         0.0832
      21    O1      18.120402   17.530389   22.086200 O.3        1 MOL1        -0.5509
      22    H14     17.727947   17.685507   21.201590 H          1 MOL1         0.3779
@<TRIPOS>BOND
    1     1     2    1
    2     1     3    1
    3     1     4    1
    4     4     5    1
    5     4     6    1
    6     4     7    1
    7     7     8    1
    8     7     9    1
    9     7    10    1
   10    10    11    1
   11    10    12    1
   12    10    13    1
   13    13    14    1
   14    13    15    1
   15    15    16    1
   16    15    17    1
   17     1    18    1
   18    15    18    1
   19    18    19    1
   20    18    20    1
   21    13    21    1
   22    21    22    1
@<TRIPOS>SUBSTRUCTURE
       1 MOL1            1 RESIDUE      1      MOL     
@<SCITEGIC>MOL_PROPERTY
VConf Rank
SciTegic.value.IntegerValue
986

@<SCITEGIC>MOL_PROPERTY
Conf_Id
SciTegic.value.IntegerValue
144

@<SCITEGIC>MOL_PROPERTY
Delta U+W
SciTegic.value.DoubleValue
-3.291

@<SCITEGIC>MOL_PROPERTY
U+W
SciTegic.value.DoubleValue
3.132

@<SCITEGIC>MOL_PROPERTY
Grad RMS
SciTegic.value.DoubleValue
0.000000

@<SCITEGIC>MOL_PROPERTY
U
SciTegic.value.DoubleValue
5.411

@<SCITEGIC>MOL_PROPERTY
W
SciTegic.value.DoubleValue
-2.279

@<SCITEGIC>MOL_PROPERTY
W(PB)
SciTegic.value.DoubleValue
-4.300

@<SCITEGIC>MOL_PROPERTY
W(SA)
SciTegic.value.DoubleValue
2.021

@<SCITEGIC>MOL_PROPERTY
Valence
SciTegic.value.DoubleValue
11.909

@<SCITEGIC>MOL_PROPERTY
Coulomb
SciTegic.value.DoubleValue
-8.733

@<SCITEGIC>MOL_PROPERTY
VdW
SciTegic.value.DoubleValue
2.236

@<SCITEGIC>MOL_PROPERTY
VdW6
SciTegic.value.DoubleValue
-8.936

@<SCITEGIC>MOL_PROPERTY
VdW12
SciTegic.value.DoubleValue
11.172

@<SCITEGIC>MOL_PROPERTY
Bond
SciTegic.value.DoubleValue
0.223

@<SCITEGIC>MOL_PROPERTY
Angle
SciTegic.value.DoubleValue
2.457

@<SCITEGIC>MOL_PROPERTY
Pdih
SciTegic.value.DoubleValue
9.228

@<SCITEGIC>MOL_PROPERTY
Idih
SciTegic.value.DoubleValue
0.000

@<SCITEGIC>MOL_PROPERTY
Tether
SciTegic.value.DoubleValue
0.000

@<TRIPOS>MOLECULE
guest-5_confgen4.mol2 : confsearch ligand conformer 987
          22          22           1
SMALL
USER_CHARGES
 
@<TRIPOS>ATOM
       1    C1      18.445156   19.207635   23.459442 C.3        1 MOL1        -0.1685
       2    H1      17.617637   18.719325   23.992035 H          1 MOL1         0.0832
       3    H2      18.140122   20.253322   23.317405 H          1 MOL1         0.0832
       4    C2      18.623906   18.495923   22.097976 C.3        1 MOL1        -0.1685
       5    H3      19.226718   17.588054   22.236413 H          1 MOL1         0.0832
       6    H4      17.642979   18.145561   21.748652 H          1 MOL1         0.0832
       7    C3      19.245292   19.366289   20.978929 C.3        1 MOL1        -0.1685
       8    H5      18.452631   19.965702   20.510627 H          1 MOL1         0.0832
       9    H6      19.617432   18.696744   20.191376 H          1 MOL1         0.0832
      10    C4      20.384843   20.323748   21.406522 C.3        1 MOL1        -0.1761
      11    H7      20.937758   20.612583   20.502460 H          1 MOL1         0.0832
      12    H8      19.948174   21.251821   21.797539 H          1 MOL1         0.0832
      13    C5      21.367279   19.742937   22.448190 C.3        1 MOL1         0.1218
      14    H9      21.493587   18.664866   22.274186 H          1 MOL1         0.0789
      15    C6      20.899523   19.982306   23.901767 C.3        1 MOL1        -0.1761
      16    H10     21.740391   19.782116   24.579259 H          1 MOL1         0.0832
      17    H11     20.647868   21.042403   24.035747 H          1 MOL1         0.0832
      18    C7      19.701996   19.115242   24.357667 C.3        1 MOL1        -0.1685
      19    H12     20.019971   18.066395   24.433403 H          1 MOL1         0.0832
      20    H13     19.427055   19.418774   25.377012 H          1 MOL1         0.0832
      21    O1      22.624550   20.385000   22.283159 O.3        1 MOL1        -0.5509
      22    H14     22.471205   21.338878   22.443662 H          1 MOL1         0.3779
@<TRIPOS>BOND
    1     1     2    1
    2     1     3    1
    3     1     4    1
    4     4     5    1
    5     4     6    1
    6     4     7    1
    7     7     8    1
    8     7     9    1
    9     7    10    1
   10    10    11    1
   11    10    12    1
   12    10    13    1
   13    13    14    1
   14    13    15    1
   15    15    16    1
   16    15    17    1
   17     1    18    1
   18    15    18    1
   19    18    19    1
   20    18    20    1
   21    13    21    1
   22    21    22    1
@<TRIPOS>SUBSTRUCTURE
       1 MOL1            1 RESIDUE      1      MOL     
@<SCITEGIC>MOL_PROPERTY
VConf Rank
SciTegic.value.IntegerValue
987

@<SCITEGIC>MOL_PROPERTY
Conf_Id
SciTegic.value.IntegerValue
76

@<SCITEGIC>MOL_PROPERTY
Delta U+W
SciTegic.value.DoubleValue
-3.175

@<SCITEGIC>MOL_PROPERTY
U+W
SciTegic.value.DoubleValue
3.248

@<SCITEGIC>MOL_PROPERTY
Grad RMS
SciTegic.value.DoubleValue
0.000000

@<SCITEGIC>MOL_PROPERTY
U
SciTegic.value.DoubleValue
5.336

@<SCITEGIC>MOL_PROPERTY
W
SciTegic.value.DoubleValue
-2.088

@<SCITEGIC>MOL_PROPERTY
W(PB)
SciTegic.value.DoubleValue
-4.098

@<SCITEGIC>MOL_PROPERTY
W(SA)
SciTegic.value.DoubleValue
2.010

@<SCITEGIC>MOL_PROPERTY
Valence
SciTegic.value.DoubleValue
12.390

@<SCITEGIC>MOL_PROPERTY
Coulomb
SciTegic.value.DoubleValue
-9.270

@<SCITEGIC>MOL_PROPERTY
VdW
SciTegic.value.DoubleValue
2.216

@<SCITEGIC>MOL_PROPERTY
VdW6
SciTegic.value.DoubleValue
-8.967

@<SCITEGIC>MOL_PROPERTY
VdW12
SciTegic.value.DoubleValue
11.183

@<SCITEGIC>MOL_PROPERTY
Bond
SciTegic.value.DoubleValue
0.218

@<SCITEGIC>MOL_PROPERTY
Angle
SciTegic.value.DoubleValue
2.426

@<SCITEGIC>MOL_PROPERTY
Pdih
SciTegic.value.DoubleValue
9.745

@<SCITEGIC>MOL_PROPERTY
Idih
SciTegic.value.DoubleValue
0.000

@<SCITEGIC>MOL_PROPERTY
Tether
SciTegic.value.DoubleValue
0.000

@<TRIPOS>MOLECULE
guest-5_confgen4.mol2 : confsearch ligand conformer 988
          22          22           1
SMALL
USER_CHARGES
 
@<TRIPOS>ATOM
       1    C1      19.247180   18.270956   23.777128 C.3        1 MOL1        -0.1685
       2    H1      19.527942   17.214361   23.884646 H          1 MOL1         0.0832
       3    H2      18.437989   18.439490   24.500745 H          1 MOL1         0.0832
       4    C2      18.693398   18.481515   22.347560 C.3        1 MOL1        -0.1685
       5    H3      19.254827   17.855362   21.641013 H          1 MOL1         0.0832
       6    H4      17.663345   18.100495   22.323091 H          1 MOL1         0.0832
       7    C3      18.698732   19.946763   21.853030 C.3        1 MOL1        -0.1685
       8    H5      18.454957   20.638984   22.670489 H          1 MOL1         0.0832
       9    H6      17.897797   20.058803   21.109900 H          1 MOL1         0.0832
      10    C4      20.032912   20.345534   21.172571 C.3        1 MOL1        -0.1761
      11    H7      20.286845   19.597692   20.410492 H          1 MOL1         0.0832
      12    H8      19.879622   21.284454   20.624534 H          1 MOL1         0.0832
      13    C5      21.247873   20.533791   22.109335 C.3        1 MOL1         0.1218
      14    H9      22.133366   20.630170   21.464577 H          1 MOL1         0.0789
      15    C6      21.518293   19.358805   23.082354 C.3        1 MOL1        -0.1761
      16    H10     21.651577   18.428820   22.514689 H          1 MOL1         0.0832
      17    H11     22.483055   19.548395   23.570284 H          1 MOL1         0.0832
      18    C7      20.447626   19.157445   24.186140 C.3        1 MOL1        -0.1685
      19    H12     20.924592   18.695995   25.061349 H          1 MOL1         0.0832
      20    H13     20.079068   20.130839   24.535583 H          1 MOL1         0.0832
      21    O1      21.095605   21.747809   22.838031 O.3        1 MOL1        -0.5509
      22    H14     21.855620   21.801330   23.452683 H          1 MOL1         0.3779
@<TRIPOS>BOND
    1     1     2    1
    2     1     3    1
    3     1     4    1
    4     4     5    1
    5     4     6    1
    6     4     7    1
    7     7     8    1
    8     7     9    1
    9     7    10    1
   10    10    11    1
   11    10    12    1
   12    10    13    1
   13    13    14    1
   14    13    15    1
   15    15    16    1
   16    15    17    1
   17     1    18    1
   18    15    18    1
   19    18    19    1
   20    18    20    1
   21    13    21    1
   22    21    22    1
@<TRIPOS>SUBSTRUCTURE
       1 MOL1            1 RESIDUE      1      MOL     
@<SCITEGIC>MOL_PROPERTY
VConf Rank
SciTegic.value.IntegerValue
988

@<SCITEGIC>MOL_PROPERTY
Conf_Id
SciTegic.value.IntegerValue
95

@<SCITEGIC>MOL_PROPERTY
Delta U+W
SciTegic.value.DoubleValue
-2.289

@<SCITEGIC>MOL_PROPERTY
U+W
SciTegic.value.DoubleValue
4.134

@<SCITEGIC>MOL_PROPERTY
Grad RMS
SciTegic.value.DoubleValue
0.000000

@<SCITEGIC>MOL_PROPERTY
U
SciTegic.value.DoubleValue
6.373

@<SCITEGIC>MOL_PROPERTY
W
SciTegic.value.DoubleValue
-2.240

@<SCITEGIC>MOL_PROPERTY
W(PB)
SciTegic.value.DoubleValue
-4.254

@<SCITEGIC>MOL_PROPERTY
W(SA)
SciTegic.value.DoubleValue
2.015

@<SCITEGIC>MOL_PROPERTY
Valence
SciTegic.value.DoubleValue
12.093

@<SCITEGIC>MOL_PROPERTY
Coulomb
SciTegic.value.DoubleValue
-8.058

@<SCITEGIC>MOL_PROPERTY
VdW
SciTegic.value.DoubleValue
2.339

@<SCITEGIC>MOL_PROPERTY
VdW6
SciTegic.value.DoubleValue
-9.683

@<SCITEGIC>MOL_PROPERTY
VdW12
SciTegic.value.DoubleValue
12.022

@<SCITEGIC>MOL_PROPERTY
Bond
SciTegic.value.DoubleValue
0.268

@<SCITEGIC>MOL_PROPERTY
Angle
SciTegic.value.DoubleValue
3.005

@<SCITEGIC>MOL_PROPERTY
Pdih
SciTegic.value.DoubleValue
8.820

@<SCITEGIC>MOL_PROPERTY
Idih
SciTegic.value.DoubleValue
0.000

@<SCITEGIC>MOL_PROPERTY
Tether
SciTegic.value.DoubleValue
0.000

@<TRIPOS>MOLECULE
guest-5_confgen4.mol2 : confsearch ligand conformer 989
          22          22           1
SMALL
USER_CHARGES
 
@<TRIPOS>ATOM
       1    C1      19.951068   20.297815   20.918959 C.3        1 MOL1        -0.1685
       2    H1      19.351559   21.137826   20.542494 H          1 MOL1         0.0832
       3    H2      20.528218   19.934192   20.057875 H          1 MOL1         0.0832
       4    C2      18.983966   19.181810   21.381099 C.3        1 MOL1        -0.1685
       5    H3      18.090064   19.635181   21.830404 H          1 MOL1         0.0832
       6    H4      18.626406   18.651415   20.487996 H          1 MOL1         0.0832
       7    C3      19.590664   18.155039   22.365566 C.3        1 MOL1        -0.1685
       8    H5      20.636112   17.935150   22.109624 H          1 MOL1         0.0832
       9    H6      19.043396   17.209600   22.251250 H          1 MOL1         0.0832
      10    C4      19.463502   18.598419   23.844942 C.3        1 MOL1        -0.1761
      11    H7      18.424722   18.892346   24.043536 H          1 MOL1         0.0832
      12    H8      19.648033   17.728890   24.489031 H          1 MOL1         0.0832
      13    C5      20.396778   19.745339   24.295837 C.3        1 MOL1         0.1218
      14    H9      20.062682   20.051396   25.297740 H          1 MOL1         0.0789
      15    C6      20.365231   21.009511   23.400735 C.3        1 MOL1        -0.1761
      16    H10     19.341393   21.400102   23.340047 H          1 MOL1         0.0832
      17    H11     20.951639   21.783669   23.912236 H          1 MOL1         0.0832
      18    C7      20.950592   20.824016   21.976521 C.3        1 MOL1        -0.1685
      19    H12     21.335767   21.790621   21.625047 H          1 MOL1         0.0832
      20    H13     21.824806   20.160821   22.015787 H          1 MOL1         0.0832
      21    O1      21.729755   19.254917   24.403314 O.3        1 MOL1        -0.5509
      22    H14     21.689983   18.451745   24.961452 H          1 MOL1         0.3779
@<TRIPOS>BOND
    1     1     2    1
    2     1     3    1
    3     1     4    1
    4     4     5    1
    5     4     6    1
    6     4     7    1
    7     7     8    1
    8     7     9    1
    9     7    10    1
   10    10    11    1
   11    10    12    1
   12    10    13    1
   13    13    14    1
   14    13    15    1
   15    15    16    1
   16    15    17    1
   17     1    18    1
   18    15    18    1
   19    18    19    1
   20    18    20    1
   21    13    21    1
   22    21    22    1
@<TRIPOS>SUBSTRUCTURE
       1 MOL1            1 RESIDUE      1      MOL     
@<SCITEGIC>MOL_PROPERTY
VConf Rank
SciTegic.value.IntegerValue
989

@<SCITEGIC>MOL_PROPERTY
Conf_Id
SciTegic.value.IntegerValue
41

@<SCITEGIC>MOL_PROPERTY
Delta U+W
SciTegic.value.DoubleValue
-2.114

@<SCITEGIC>MOL_PROPERTY
U+W
SciTegic.value.DoubleValue
4.310

@<SCITEGIC>MOL_PROPERTY
Grad RMS
SciTegic.value.DoubleValue
0.000000

@<SCITEGIC>MOL_PROPERTY
U
SciTegic.value.DoubleValue
6.598

@<SCITEGIC>MOL_PROPERTY
W
SciTegic.value.DoubleValue
-2.289

@<SCITEGIC>MOL_PROPERTY
W(PB)
SciTegic.value.DoubleValue
-4.294

@<SCITEGIC>MOL_PROPERTY
W(SA)
SciTegic.value.DoubleValue
2.005

@<SCITEGIC>MOL_PROPERTY
Valence
SciTegic.value.DoubleValue
12.082

@<SCITEGIC>MOL_PROPERTY
Coulomb
SciTegic.value.DoubleValue
-7.801

@<SCITEGIC>MOL_PROPERTY
VdW
SciTegic.value.DoubleValue
2.317

@<SCITEGIC>MOL_PROPERTY
VdW6
SciTegic.value.DoubleValue
-9.658

@<SCITEGIC>MOL_PROPERTY
VdW12
SciTegic.value.DoubleValue
11.975

@<SCITEGIC>MOL_PROPERTY
Bond
SciTegic.value.DoubleValue
0.267

@<SCITEGIC>MOL_PROPERTY
Angle
SciTegic.value.DoubleValue
3.051

@<SCITEGIC>MOL_PROPERTY
Pdih
SciTegic.value.DoubleValue
8.764

@<SCITEGIC>MOL_PROPERTY
Idih
SciTegic.value.DoubleValue
0.000

@<SCITEGIC>MOL_PROPERTY
Tether
SciTegic.value.DoubleValue
0.000

@<TRIPOS>MOLECULE
guest-5_confgen4.mol2 : confsearch ligand conformer 990
          22          22           1
SMALL
USER_CHARGES
 
@<TRIPOS>ATOM
       1    C1      18.701466   20.422815   22.993794 C.3        1 MOL1        -0.1685
       2    H1      17.775050   20.857875   23.392576 H          1 MOL1         0.0832
       3    H2      19.100102   21.152442   22.275525 H          1 MOL1         0.0832
       4    C2      18.336381   19.100116   22.283465 C.3        1 MOL1        -0.1685
       5    H3      17.999297   18.364762   23.026573 H          1 MOL1         0.0832
       6    H4      17.474824   19.280958   21.626521 H          1 MOL1         0.0832
       7    C3      19.472713   18.490239   21.433747 C.3        1 MOL1        -0.1685
       8    H5      19.663917   19.132864   20.564056 H          1 MOL1         0.0832
       9    H6      19.113348   17.537643   21.021990 H          1 MOL1         0.0832
      10    C4      20.797669   18.222981   22.198111 C.3        1 MOL1        -0.1761
      11    H7      20.596873   17.645885   23.109648 H          1 MOL1         0.0832
      12    H8      21.419580   17.574452   21.567857 H          1 MOL1         0.0832
      13    C5      21.646354   19.473769   22.543499 C.3        1 MOL1         0.1218
      14    H9      22.658689   19.113265   22.776933 H          1 MOL1         0.0789
      15    C6      21.182227   20.286103   23.780365 C.3        1 MOL1        -0.1761
      16    H10     21.763244   19.945018   24.647049 H          1 MOL1         0.0832
      17    H11     21.461845   21.338843   23.642439 H          1 MOL1         0.0832
      18    C7      19.684181   20.218230   24.167861 C.3        1 MOL1        -0.1685
      19    H12     19.471333   19.264256   24.668903 H          1 MOL1         0.0832
      20    H13     19.497001   20.994818   24.921885 H          1 MOL1         0.0832
      21    O1      21.745996   20.336019   21.413225 O.3        1 MOL1        -0.5509
      22    H14     22.321797   21.082275   21.676785 H          1 MOL1         0.3779
@<TRIPOS>BOND
    1     1     2    1
    2     1     3    1
    3     1     4    1
    4     4     5    1
    5     4     6    1
    6     4     7    1
    7     7     8    1
    8     7     9    1
    9     7    10    1
   10    10    11    1
   11    10    12    1
   12    10    13    1
   13    13    14    1
   14    13    15    1
   15    15    16    1
   16    15    17    1
   17     1    18    1
   18    15    18    1
   19    18    19    1
   20    18    20    1
   21    13    21    1
   22    21    22    1
@<TRIPOS>SUBSTRUCTURE
       1 MOL1            1 RESIDUE      1      MOL     
@<SCITEGIC>MOL_PROPERTY
VConf Rank
SciTegic.value.IntegerValue
990

@<SCITEGIC>MOL_PROPERTY
Conf_Id
SciTegic.value.IntegerValue
104

@<SCITEGIC>MOL_PROPERTY
Delta U+W
SciTegic.value.DoubleValue
-1.172

@<SCITEGIC>MOL_PROPERTY
U+W
SciTegic.value.DoubleValue
5.252

@<SCITEGIC>MOL_PROPERTY
Grad RMS
SciTegic.value.DoubleValue
0.000000

@<SCITEGIC>MOL_PROPERTY
U
SciTegic.value.DoubleValue
7.482

@<SCITEGIC>MOL_PROPERTY
W
SciTegic.value.DoubleValue
-2.230

@<SCITEGIC>MOL_PROPERTY
W(PB)
SciTegic.value.DoubleValue
-4.220

@<SCITEGIC>MOL_PROPERTY
W(SA)
SciTegic.value.DoubleValue
1.990

@<SCITEGIC>MOL_PROPERTY
Valence
SciTegic.value.DoubleValue
12.309

@<SCITEGIC>MOL_PROPERTY
Coulomb
SciTegic.value.DoubleValue
-7.084

@<SCITEGIC>MOL_PROPERTY
VdW
SciTegic.value.DoubleValue
2.258

@<SCITEGIC>MOL_PROPERTY
VdW6
SciTegic.value.DoubleValue
-9.770

@<SCITEGIC>MOL_PROPERTY
VdW12
SciTegic.value.DoubleValue
12.028

@<SCITEGIC>MOL_PROPERTY
Bond
SciTegic.value.DoubleValue
0.284

@<SCITEGIC>MOL_PROPERTY
Angle
SciTegic.value.DoubleValue
3.491

@<SCITEGIC>MOL_PROPERTY
Pdih
SciTegic.value.DoubleValue
8.535

@<SCITEGIC>MOL_PROPERTY
Idih
SciTegic.value.DoubleValue
0.000

@<SCITEGIC>MOL_PROPERTY
Tether
SciTegic.value.DoubleValue
0.000

@<TRIPOS>MOLECULE
guest-5_confgen4.mol2 : confsearch ligand conformer 991
          22          22           1
SMALL
USER_CHARGES
 
@<TRIPOS>ATOM
       1    C1      19.919372   20.611280   21.389435 C.3        1 MOL1        -0.1685
       2    H1      19.499131   21.420050   22.002438 H          1 MOL1         0.0832
       3    H2      19.941519   20.993053   20.359533 H          1 MOL1         0.0832
       4    C2      19.002286   19.367136   21.412799 C.3        1 MOL1        -0.1685
       5    H3      18.167752   19.533977   20.717842 H          1 MOL1         0.0832
       6    H4      19.546266   18.506631   21.001759 H          1 MOL1         0.0832
       7    C3      18.400683   19.002209   22.793587 C.3        1 MOL1        -0.1685
       8    H5      18.171060   17.927710   22.799896 H          1 MOL1         0.0832
       9    H6      17.430524   19.507738   22.894388 H          1 MOL1         0.0832
      10    C4      19.242445   19.350654   24.051055 C.3        1 MOL1        -0.1761
      11    H7      19.131991   20.420264   24.271711 H          1 MOL1         0.0832
      12    H8      18.798021   18.832275   24.910574 H          1 MOL1         0.0832
      13    C5      20.748788   19.005576   24.008228 C.3        1 MOL1         0.1218
      14    H9      21.097833   18.935272   25.048471 H          1 MOL1         0.0789
      15    C6      21.596688   20.102615   23.325703 C.3        1 MOL1        -0.1761
      16    H10     21.416165   21.056359   23.838385 H          1 MOL1         0.0832
      17    H11     22.656327   19.871564   23.496068 H          1 MOL1         0.0832
      18    C7      21.376937   20.300657   21.805413 C.3        1 MOL1        -0.1685
      19    H12     22.013681   21.134319   21.479412 H          1 MOL1         0.0832
      20    H13     21.740925   19.420265   21.258695 H          1 MOL1         0.0832
      21    O1      20.956204   17.756788   23.366608 O.3        1 MOL1        -0.5509
      22    H14     20.549112   17.871129   22.484856 H          1 MOL1         0.3779
@<TRIPOS>BOND
    1     1     2    1
    2     1     3    1
    3     1     4    1
    4     4     5    1
    5     4     6    1
    6     4     7    1
    7     7     8    1
    8     7     9    1
    9     7    10    1
   10    10    11    1
   11    10    12    1
   12    10    13    1
   13    13    14    1
   14    13    15    1
   15    15    16    1
   16    15    17    1
   17     1    18    1
   18    15    18    1
   19    18    19    1
   20    18    20    1
   21    13    21    1
   22    21    22    1
@<TRIPOS>SUBSTRUCTURE
       1 MOL1            1 RESIDUE      1      MOL     
@<SCITEGIC>MOL_PROPERTY
VConf Rank
SciTegic.value.IntegerValue
991

@<SCITEGIC>MOL_PROPERTY
Conf_Id
SciTegic.value.IntegerValue
99

@<SCITEGIC>MOL_PROPERTY
Delta U+W
SciTegic.value.DoubleValue
-3.852

@<SCITEGIC>MOL_PROPERTY
U+W
SciTegic.value.DoubleValue
2.572

@<SCITEGIC>MOL_PROPERTY
Grad RMS
SciTegic.value.DoubleValue
0.000000

@<SCITEGIC>MOL_PROPERTY
U
SciTegic.value.DoubleValue
3.922

@<SCITEGIC>MOL_PROPERTY
W
SciTegic.value.DoubleValue
-1.350

@<SCITEGIC>MOL_PROPERTY
W(PB)
SciTegic.value.DoubleValue
-3.345

@<SCITEGIC>MOL_PROPERTY
W(SA)
SciTegic.value.DoubleValue
1.995

@<SCITEGIC>MOL_PROPERTY
Valence
SciTegic.value.DoubleValue
12.571

@<SCITEGIC>MOL_PROPERTY
Coulomb
SciTegic.value.DoubleValue
-10.581

@<SCITEGIC>MOL_PROPERTY
VdW
SciTegic.value.DoubleValue
1.932

@<SCITEGIC>MOL_PROPERTY
VdW6
SciTegic.value.DoubleValue
-10.483

@<SCITEGIC>MOL_PROPERTY
VdW12
SciTegic.value.DoubleValue
12.415

@<SCITEGIC>MOL_PROPERTY
Bond
SciTegic.value.DoubleValue
0.268

@<SCITEGIC>MOL_PROPERTY
Angle
SciTegic.value.DoubleValue
3.728

@<SCITEGIC>MOL_PROPERTY
Pdih
SciTegic.value.DoubleValue
8.575

@<SCITEGIC>MOL_PROPERTY
Idih
SciTegic.value.DoubleValue
0.000

@<SCITEGIC>MOL_PROPERTY
Tether
SciTegic.value.DoubleValue
0.000

@<TRIPOS>MOLECULE
guest-5_confgen4.mol2 : confsearch ligand conformer 992
          22          22           1
SMALL
USER_CHARGES
 
@<TRIPOS>ATOM
       1    C1      19.810049   21.233275   22.544457 C.3        1 MOL1        -0.1685
       2    H1      19.965324   22.269320   22.875805 H          1 MOL1         0.0832
       3    H2      19.155055   21.312035   21.666485 H          1 MOL1         0.0832
       4    C2      19.082544   20.469731   23.689703 C.3        1 MOL1        -0.1685
       5    H3      18.922787   21.175333   24.516682 H          1 MOL1         0.0832
       6    H4      18.073962   20.177193   23.368397 H          1 MOL1         0.0832
       7    C3      19.824351   19.233943   24.260055 C.3        1 MOL1        -0.1685
       8    H5      19.307570   18.911054   25.174061 H          1 MOL1         0.0832
       9    H6      20.825912   19.526910   24.598605 H          1 MOL1         0.0832
      10    C4      19.928873   18.005547   23.314038 C.3        1 MOL1        -0.1761
      11    H7      20.771546   17.386436   23.647723 H          1 MOL1         0.0832
      12    H8      19.036419   17.381565   23.456050 H          1 MOL1         0.0832
      13    C5      20.081188   18.262687   21.794552 C.3        1 MOL1         0.1218
      14    H9      20.363663   17.304560   21.335233 H          1 MOL1         0.0789
      15    C6      21.157642   19.295481   21.378945 C.3        1 MOL1        -0.1761
      16    H10     22.145541   18.828762   21.483687 H          1 MOL1         0.0832
      17    H11     21.038117   19.483250   20.303560 H          1 MOL1         0.0832
      18    C7      21.186331   20.663382   22.115711 C.3        1 MOL1        -0.1685
      19    H12     21.849043   20.600490   22.987735 H          1 MOL1         0.0832
      20    H13     21.671601   21.392162   21.452297 H          1 MOL1         0.0832
      21    O1      18.826670   18.635950   21.246739 O.3        1 MOL1        -0.5509
      22    H14     18.621683   19.486836   21.683668 H          1 MOL1         0.3779
@<TRIPOS>BOND
    1     1     2    1
    2     1     3    1
    3     1     4    1
    4     4     5    1
    5     4     6    1
    6     4     7    1
    7     7     8    1
    8     7     9    1
    9     7    10    1
   10    10    11    1
   11    10    12    1
   12    10    13    1
   13    13    14    1
   14    13    15    1
   15    15    16    1
   16    15    17    1
   17     1    18    1
   18    15    18    1
   19    18    19    1
   20    18    20    1
   21    13    21    1
   22    21    22    1
@<TRIPOS>SUBSTRUCTURE
       1 MOL1            1 RESIDUE      1      MOL     
@<SCITEGIC>MOL_PROPERTY
VConf Rank
SciTegic.value.IntegerValue
992

@<SCITEGIC>MOL_PROPERTY
Conf_Id
SciTegic.value.IntegerValue
98

@<SCITEGIC>MOL_PROPERTY
Delta U+W
SciTegic.value.DoubleValue
0.930

@<SCITEGIC>MOL_PROPERTY
U+W
SciTegic.value.DoubleValue
7.353

@<SCITEGIC>MOL_PROPERTY
Grad RMS
SciTegic.value.DoubleValue
0.000000

@<SCITEGIC>MOL_PROPERTY
U
SciTegic.value.DoubleValue
8.455

@<SCITEGIC>MOL_PROPERTY
W
SciTegic.value.DoubleValue
-1.102

@<SCITEGIC>MOL_PROPERTY
W(PB)
SciTegic.value.DoubleValue
-3.101

@<SCITEGIC>MOL_PROPERTY
W(SA)
SciTegic.value.DoubleValue
2.000

@<SCITEGIC>MOL_PROPERTY
Valence
SciTegic.value.DoubleValue
15.601

@<SCITEGIC>MOL_PROPERTY
Coulomb
SciTegic.value.DoubleValue
-10.573

@<SCITEGIC>MOL_PROPERTY
VdW
SciTegic.value.DoubleValue
3.427

@<SCITEGIC>MOL_PROPERTY
VdW6
SciTegic.value.DoubleValue
-11.360

@<SCITEGIC>MOL_PROPERTY
VdW12
SciTegic.value.DoubleValue
14.787

@<SCITEGIC>MOL_PROPERTY
Bond
SciTegic.value.DoubleValue
0.471

@<SCITEGIC>MOL_PROPERTY
Angle
SciTegic.value.DoubleValue
5.445

@<SCITEGIC>MOL_PROPERTY
Pdih
SciTegic.value.DoubleValue
9.685

@<SCITEGIC>MOL_PROPERTY
Idih
SciTegic.value.DoubleValue
0.000

@<SCITEGIC>MOL_PROPERTY
Tether
SciTegic.value.DoubleValue
0.000

@<TRIPOS>MOLECULE
guest-5_confgen4.mol2 : confsearch ligand conformer 993
          22          22           1
SMALL
USER_CHARGES
 
@<TRIPOS>ATOM
       1    C1      19.464366   18.888417   24.149600 C.3        1 MOL1        -0.1685
       2    H1      20.129089   18.034392   23.966391 H          1 MOL1         0.0832
       3    H2      19.022562   18.699092   25.137364 H          1 MOL1         0.0832
       4    C2      18.328079   18.903446   23.095661 C.3        1 MOL1        -0.1685
       5    H3      17.784023   17.953003   23.182471 H          1 MOL1         0.0832
       6    H4      17.601032   19.686619   23.349957 H          1 MOL1         0.0832
       7    C3      18.767141   19.075662   21.615049 C.3        1 MOL1        -0.1685
       8    H5      18.571615   20.103078   21.281580 H          1 MOL1         0.0832
       9    H6      18.118134   18.447303   20.990077 H          1 MOL1         0.0832
      10    C4      20.246041   18.709181   21.321354 C.3        1 MOL1        -0.1761
      11    H7      20.452952   17.705808   21.713855 H          1 MOL1         0.0832
      12    H8      20.369104   18.617045   20.233810 H          1 MOL1         0.0832
      13    C5      21.313997   19.701913   21.867086 C.3        1 MOL1         0.1218
      14    H9      22.106570   19.113991   22.352104 H          1 MOL1         0.0789
      15    C6      20.803394   20.754761   22.882494 C.3        1 MOL1        -0.1761
      16    H10     21.613145   21.464486   23.096153 H          1 MOL1         0.0832
      17    H11     20.010512   21.356832   22.422670 H          1 MOL1         0.0832
      18    C7      20.302092   20.186040   24.233442 C.3        1 MOL1        -0.1685
      19    H12     21.168210   19.992243   24.880820 H          1 MOL1         0.0832
      20    H13     19.714007   20.962456   24.741385 H          1 MOL1         0.0832
      21    O1      21.876458   20.408220   20.767111 O.3        1 MOL1        -0.5509
      22    H14     22.582731   20.981817   21.130902 H          1 MOL1         0.3779
@<TRIPOS>BOND
    1     1     2    1
    2     1     3    1
    3     1     4    1
    4     4     5    1
    5     4     6    1
    6     4     7    1
    7     7     8    1
    8     7     9    1
    9     7    10    1
   10    10    11    1
   11    10    12    1
   12    10    13    1
   13    13    14    1
   14    13    15    1
   15    15    16    1
   16    15    17    1
   17     1    18    1
   18    15    18    1
   19    18    19    1
   20    18    20    1
   21    13    21    1
   22    21    22    1
@<TRIPOS>SUBSTRUCTURE
       1 MOL1            1 RESIDUE      1      MOL     
@<SCITEGIC>MOL_PROPERTY
VConf Rank
SciTegic.value.IntegerValue
993

@<SCITEGIC>MOL_PROPERTY
Conf_Id
SciTegic.value.IntegerValue
141

@<SCITEGIC>MOL_PROPERTY
Delta U+W
SciTegic.value.DoubleValue
0.000

@<SCITEGIC>MOL_PROPERTY
U+W
SciTegic.value.DoubleValue
6.423

@<SCITEGIC>MOL_PROPERTY
Grad RMS
SciTegic.value.DoubleValue
0.000000

@<SCITEGIC>MOL_PROPERTY
U
SciTegic.value.DoubleValue
8.781

@<SCITEGIC>MOL_PROPERTY
W
SciTegic.value.DoubleValue
-2.358

@<SCITEGIC>MOL_PROPERTY
W(PB)
SciTegic.value.DoubleValue
-4.373

@<SCITEGIC>MOL_PROPERTY
W(SA)
SciTegic.value.DoubleValue
2.015

@<SCITEGIC>MOL_PROPERTY
Valence
SciTegic.value.DoubleValue
13.328

@<SCITEGIC>MOL_PROPERTY
Coulomb
SciTegic.value.DoubleValue
-8.387

@<SCITEGIC>MOL_PROPERTY
VdW
SciTegic.value.DoubleValue
3.840

@<SCITEGIC>MOL_PROPERTY
VdW6
SciTegic.value.DoubleValue
-9.744

@<SCITEGIC>MOL_PROPERTY
VdW12
SciTegic.value.DoubleValue
13.584

@<SCITEGIC>MOL_PROPERTY
Bond
SciTegic.value.DoubleValue
0.436

@<SCITEGIC>MOL_PROPERTY
Angle
SciTegic.value.DoubleValue
3.478

@<SCITEGIC>MOL_PROPERTY
Pdih
SciTegic.value.DoubleValue
9.415

@<SCITEGIC>MOL_PROPERTY
Idih
SciTegic.value.DoubleValue
0.000

@<SCITEGIC>MOL_PROPERTY
Tether
SciTegic.value.DoubleValue
0.000

@<TRIPOS>MOLECULE
guest-5_confgen4.mol2 : confsearch ligand conformer 994
          22          22           1
SMALL
USER_CHARGES
 
@<TRIPOS>ATOM
       1    C1      20.605161   21.155818   22.124134 C.3        1 MOL1        -0.1685
       2    H1      21.562898   20.910229   22.602707 H          1 MOL1         0.0832
       3    H2      20.751504   22.127527   21.632942 H          1 MOL1         0.0832
       4    C2      19.486562   21.327159   23.180086 C.3        1 MOL1        -0.1685
       5    H3      19.692849   22.234355   23.764293 H          1 MOL1         0.0832
       6    H4      18.530466   21.510971   22.671192 H          1 MOL1         0.0832
       7    C3      19.322919   20.146471   24.164731 C.3        1 MOL1        -0.1685
       8    H5      18.461582   20.358057   24.812927 H          1 MOL1         0.0832
       9    H6      20.195552   20.103192   24.830762 H          1 MOL1         0.0832
      10    C4      19.112982   18.764267   23.499436 C.3        1 MOL1        -0.1761
      11    H7      18.783238   18.066601   24.280472 H          1 MOL1         0.0832
      12    H8      18.298322   18.807744   22.764973 H          1 MOL1         0.0832
      13    C5      20.401234   18.214465   22.846939 C.3        1 MOL1         0.1218
      14    H9      21.261070   18.558932   23.439281 H          1 MOL1         0.0789
      15    C6      20.615676   18.653222   21.380378 C.3        1 MOL1        -0.1761
      16    H10     21.672782   18.486822   21.136068 H          1 MOL1         0.0832
      17    H11     20.045488   17.990470   20.715731 H          1 MOL1         0.0832
      18    C7      20.249676   20.118130   21.033776 C.3        1 MOL1        -0.1685
      19    H12     20.768289   20.386475   20.103262 H          1 MOL1         0.0832
      20    H13     19.177846   20.184165   20.802411 H          1 MOL1         0.0832
      21    O1      20.361330   16.793019   22.880388 O.3        1 MOL1        -0.5509
      22    H14     20.301632   16.534417   23.823881 H          1 MOL1         0.3779
@<TRIPOS>BOND
    1     1     2    1
    2     1     3    1
    3     1     4    1
    4     4     5    1
    5     4     6    1
    6     4     7    1
    7     7     8    1
    8     7     9    1
    9     7    10    1
   10    10    11    1
   11    10    12    1
   12    10    13    1
   13    13    14    1
   14    13    15    1
   15    15    16    1
   16    15    17    1
   17     1    18    1
   18    15    18    1
   19    18    19    1
   20    18    20    1
   21    13    21    1
   22    21    22    1
@<TRIPOS>SUBSTRUCTURE
       1 MOL1            1 RESIDUE      1      MOL     
@<SCITEGIC>MOL_PROPERTY
VConf Rank
SciTegic.value.IntegerValue
994

@<SCITEGIC>MOL_PROPERTY
Conf_Id
SciTegic.value.IntegerValue
144

@<SCITEGIC>MOL_PROPERTY
Delta U+W
SciTegic.value.DoubleValue
-3.291

@<SCITEGIC>MOL_PROPERTY
U+W
SciTegic.value.DoubleValue
3.132

@<SCITEGIC>MOL_PROPERTY
Grad RMS
SciTegic.value.DoubleValue
0.000000

@<SCITEGIC>MOL_PROPERTY
U
SciTegic.value.DoubleValue
5.411

@<SCITEGIC>MOL_PROPERTY
W
SciTegic.value.DoubleValue
-2.279

@<SCITEGIC>MOL_PROPERTY
W(PB)
SciTegic.value.DoubleValue
-4.300

@<SCITEGIC>MOL_PROPERTY
W(SA)
SciTegic.value.DoubleValue
2.021

@<SCITEGIC>MOL_PROPERTY
Valence
SciTegic.value.DoubleValue
11.909

@<SCITEGIC>MOL_PROPERTY
Coulomb
SciTegic.value.DoubleValue
-8.733

@<SCITEGIC>MOL_PROPERTY
VdW
SciTegic.value.DoubleValue
2.236

@<SCITEGIC>MOL_PROPERTY
VdW6
SciTegic.value.DoubleValue
-8.936

@<SCITEGIC>MOL_PROPERTY
VdW12
SciTegic.value.DoubleValue
11.172

@<SCITEGIC>MOL_PROPERTY
Bond
SciTegic.value.DoubleValue
0.223

@<SCITEGIC>MOL_PROPERTY
Angle
SciTegic.value.DoubleValue
2.457

@<SCITEGIC>MOL_PROPERTY
Pdih
SciTegic.value.DoubleValue
9.228

@<SCITEGIC>MOL_PROPERTY
Idih
SciTegic.value.DoubleValue
0.000

@<SCITEGIC>MOL_PROPERTY
Tether
SciTegic.value.DoubleValue
0.000

@<TRIPOS>MOLECULE
guest-5_confgen4.mol2 : confsearch ligand conformer 995
          22          22           1
SMALL
USER_CHARGES
 
@<TRIPOS>ATOM
       1    C1      19.876133   19.027716   21.003146 C.3        1 MOL1        -0.1685
       2    H1      19.687873   18.468305   20.076589 H          1 MOL1         0.0832
       3    H2      20.423115   19.932774   20.705887 H          1 MOL1         0.0832
       4    C2      20.740252   18.141031   21.930055 C.3        1 MOL1        -0.1685
       5    H3      20.093030   17.435081   22.468119 H          1 MOL1         0.0832
       6    H4      21.401456   17.518861   21.311418 H          1 MOL1         0.0832
       7    C3      21.621356   18.912698   22.942037 C.3        1 MOL1        -0.1685
       8    H5      22.551162   19.220518   22.444420 H          1 MOL1         0.0832
       9    H6      21.924295   18.214410   23.734274 H          1 MOL1         0.0832
      10    C4      20.984348   20.166002   23.591338 C.3        1 MOL1        -0.1761
      11    H7      21.559692   20.404672   24.496040 H          1 MOL1         0.0832
      12    H8      21.114581   21.025071   22.920566 H          1 MOL1         0.0832
      13    C5      19.489132   20.023113   23.953976 C.3        1 MOL1         0.1218
      14    H9      19.282810   18.989070   24.264869 H          1 MOL1         0.0789
      15    C6      18.556097   20.408701   22.783615 C.3        1 MOL1        -0.1761
      16    H10     17.536440   20.531682   23.172597 H          1 MOL1         0.0832
      17    H11     18.850313   21.389712   22.388467 H          1 MOL1         0.0832
      18    C7      18.504139   19.388676   21.621477 C.3        1 MOL1        -0.1685
      19    H12     18.005784   18.471538   21.964153 H          1 MOL1         0.0832
      20    H13     17.861579   19.800971   20.831594 H          1 MOL1         0.0832
      21    O1      19.207888   20.894202   25.041320 O.3        1 MOL1        -0.5509
      22    H14     19.404599   21.800825   24.727473 H          1 MOL1         0.3779
@<TRIPOS>BOND
    1     1     2    1
    2     1     3    1
    3     1     4    1
    4     4     5    1
    5     4     6    1
    6     4     7    1
    7     7     8    1
    8     7     9    1
    9     7    10    1
   10    10    11    1
   11    10    12    1
   12    10    13    1
   13    13    14    1
   14    13    15    1
   15    15    16    1
   16    15    17    1
   17     1    18    1
   18    15    18    1
   19    18    19    1
   20    18    20    1
   21    13    21    1
   22    21    22    1
@<TRIPOS>SUBSTRUCTURE
       1 MOL1            1 RESIDUE      1      MOL     
@<SCITEGIC>MOL_PROPERTY
VConf Rank
SciTegic.value.IntegerValue
995

@<SCITEGIC>MOL_PROPERTY
Conf_Id
SciTegic.value.IntegerValue
76

@<SCITEGIC>MOL_PROPERTY
Delta U+W
SciTegic.value.DoubleValue
-3.175

@<SCITEGIC>MOL_PROPERTY
U+W
SciTegic.value.DoubleValue
3.248

@<SCITEGIC>MOL_PROPERTY
Grad RMS
SciTegic.value.DoubleValue
0.000000

@<SCITEGIC>MOL_PROPERTY
U
SciTegic.value.DoubleValue
5.336

@<SCITEGIC>MOL_PROPERTY
W
SciTegic.value.DoubleValue
-2.088

@<SCITEGIC>MOL_PROPERTY
W(PB)
SciTegic.value.DoubleValue
-4.098

@<SCITEGIC>MOL_PROPERTY
W(SA)
SciTegic.value.DoubleValue
2.010

@<SCITEGIC>MOL_PROPERTY
Valence
SciTegic.value.DoubleValue
12.390

@<SCITEGIC>MOL_PROPERTY
Coulomb
SciTegic.value.DoubleValue
-9.270

@<SCITEGIC>MOL_PROPERTY
VdW
SciTegic.value.DoubleValue
2.216

@<SCITEGIC>MOL_PROPERTY
VdW6
SciTegic.value.DoubleValue
-8.967

@<SCITEGIC>MOL_PROPERTY
VdW12
SciTegic.value.DoubleValue
11.183

@<SCITEGIC>MOL_PROPERTY
Bond
SciTegic.value.DoubleValue
0.218

@<SCITEGIC>MOL_PROPERTY
Angle
SciTegic.value.DoubleValue
2.426

@<SCITEGIC>MOL_PROPERTY
Pdih
SciTegic.value.DoubleValue
9.745

@<SCITEGIC>MOL_PROPERTY
Idih
SciTegic.value.DoubleValue
0.000

@<SCITEGIC>MOL_PROPERTY
Tether
SciTegic.value.DoubleValue
0.000

@<TRIPOS>MOLECULE
guest-5_confgen4.mol2 : confsearch ligand conformer 996
          22          22           1
SMALL
USER_CHARGES
 
@<TRIPOS>ATOM
       1    C1      21.714704   19.255662   21.841060 C.3        1 MOL1        -0.1685
       2    H1      22.313373   18.334820   21.861722 H          1 MOL1         0.0832
       3    H2      22.237784   19.935954   21.155199 H          1 MOL1         0.0832
       4    C2      21.723615   19.870680   23.261041 C.3        1 MOL1        -0.1685
       5    H3      21.702434   19.066549   24.008974 H          1 MOL1         0.0832
       6    H4      22.686522   20.379640   23.404408 H          1 MOL1         0.0832
       7    C3      20.579399   20.870607   23.548196 C.3        1 MOL1        -0.1685
       8    H5      20.356164   21.478717   22.660951 H          1 MOL1         0.0832
       9    H6      20.925098   21.572186   24.319279 H          1 MOL1         0.0832
      10    C4      19.297849   20.179570   24.079401 C.3        1 MOL1        -0.1761
      11    H7      19.562910   19.524199   24.918891 H          1 MOL1         0.0832
      12    H8      18.635816   20.946711   24.502038 H          1 MOL1         0.0832
      13    C5      18.484477   19.363843   23.048812 C.3        1 MOL1         0.1218
      14    H9      17.728612   18.801029   23.615386 H          1 MOL1         0.0789
      15    C6      19.302149   18.332819   22.230955 C.3        1 MOL1        -0.1761
      16    H10     19.808960   17.636133   22.911139 H          1 MOL1         0.0832
      17    H11     18.589847   17.723335   21.660042 H          1 MOL1         0.0832
      18    C7      20.325051   18.942061   21.237119 C.3        1 MOL1        -0.1685
      19    H12     20.469967   18.240500   20.404512 H          1 MOL1         0.0832
      20    H13     19.912141   19.851867   20.781928 H          1 MOL1         0.0832
      21    O1      17.806563   20.257763   22.171680 O.3        1 MOL1        -0.5509
      22    H14     17.348786   19.703163   21.507494 H          1 MOL1         0.3779
@<TRIPOS>BOND
    1     1     2    1
    2     1     3    1
    3     1     4    1
    4     4     5    1
    5     4     6    1
    6     4     7    1
    7     7     8    1
    8     7     9    1
    9     7    10    1
   10    10    11    1
   11    10    12    1
   12    10    13    1
   13    13    14    1
   14    13    15    1
   15    15    16    1
   16    15    17    1
   17     1    18    1
   18    15    18    1
   19    18    19    1
   20    18    20    1
   21    13    21    1
   22    21    22    1
@<TRIPOS>SUBSTRUCTURE
       1 MOL1            1 RESIDUE      1      MOL     
@<SCITEGIC>MOL_PROPERTY
VConf Rank
SciTegic.value.IntegerValue
996

@<SCITEGIC>MOL_PROPERTY
Conf_Id
SciTegic.value.IntegerValue
95

@<SCITEGIC>MOL_PROPERTY
Delta U+W
SciTegic.value.DoubleValue
-2.289

@<SCITEGIC>MOL_PROPERTY
U+W
SciTegic.value.DoubleValue
4.134

@<SCITEGIC>MOL_PROPERTY
Grad RMS
SciTegic.value.DoubleValue
0.000000

@<SCITEGIC>MOL_PROPERTY
U
SciTegic.value.DoubleValue
6.373

@<SCITEGIC>MOL_PROPERTY
W
SciTegic.value.DoubleValue
-2.240

@<SCITEGIC>MOL_PROPERTY
W(PB)
SciTegic.value.DoubleValue
-4.254

@<SCITEGIC>MOL_PROPERTY
W(SA)
SciTegic.value.DoubleValue
2.015

@<SCITEGIC>MOL_PROPERTY
Valence
SciTegic.value.DoubleValue
12.093

@<SCITEGIC>MOL_PROPERTY
Coulomb
SciTegic.value.DoubleValue
-8.058

@<SCITEGIC>MOL_PROPERTY
VdW
SciTegic.value.DoubleValue
2.339

@<SCITEGIC>MOL_PROPERTY
VdW6
SciTegic.value.DoubleValue
-9.683

@<SCITEGIC>MOL_PROPERTY
VdW12
SciTegic.value.DoubleValue
12.022

@<SCITEGIC>MOL_PROPERTY
Bond
SciTegic.value.DoubleValue
0.268

@<SCITEGIC>MOL_PROPERTY
Angle
SciTegic.value.DoubleValue
3.005

@<SCITEGIC>MOL_PROPERTY
Pdih
SciTegic.value.DoubleValue
8.820

@<SCITEGIC>MOL_PROPERTY
Idih
SciTegic.value.DoubleValue
0.000

@<SCITEGIC>MOL_PROPERTY
Tether
SciTegic.value.DoubleValue
0.000

@<TRIPOS>MOLECULE
guest-5_confgen4.mol2 : confsearch ligand conformer 997
          22          22           1
SMALL
USER_CHARGES
 
@<TRIPOS>ATOM
       1    C1      19.384788   18.179372   23.763902 C.3        1 MOL1        -0.1685
       2    H1      19.020458   17.202279   23.418492 H          1 MOL1         0.0832
       3    H2      19.331598   18.146452   24.860659 H          1 MOL1         0.0832
       4    C2      18.413814   19.268001   23.247738 C.3        1 MOL1        -0.1685
       5    H3      18.051628   18.991207   22.248395 H          1 MOL1         0.0832
       6    H4      17.525039   19.263651   23.893385 H          1 MOL1         0.0832
       7    C3      18.996897   20.699702   23.205750 C.3        1 MOL1        -0.1685
       8    H5      19.653897   20.882114   24.067084 H          1 MOL1         0.0832
       9    H6      18.163999   21.409255   23.301871 H          1 MOL1         0.0832
      10    C4      19.728757   21.008001   21.875095 C.3        1 MOL1        -0.1761
      11    H7      19.077067   20.734351   21.035267 H          1 MOL1         0.0832
      12    H8      19.867165   22.093942   21.794111 H          1 MOL1         0.0832
      13    C5      21.101976   20.325952   21.678081 C.3        1 MOL1         0.1218
      14    H9      21.397535   20.502814   20.633827 H          1 MOL1         0.0789
      15    C6      21.112676   18.792607   21.899607 C.3        1 MOL1        -0.1761
      16    H10     20.388396   18.312216   21.229434 H          1 MOL1         0.0832
      17    H11     22.099127   18.426698   21.586794 H          1 MOL1         0.0832
      18    C7      20.870820   18.335756   23.361877 C.3        1 MOL1        -0.1685
      19    H12     21.365378   17.367150   23.514956 H          1 MOL1         0.0832
      20    H13     21.366901   19.027149   24.055778 H          1 MOL1         0.0832
      21    O1      22.064408   20.949250   22.523135 O.3        1 MOL1        -0.5509
      22    H14     22.004012   21.911897   22.356253 H          1 MOL1         0.3779
@<TRIPOS>BOND
    1     1     2    1
    2     1     3    1
    3     1     4    1
    4     4     5    1
    5     4     6    1
    6     4     7    1
    7     7     8    1
    8     7     9    1
    9     7    10    1
   10    10    11    1
   11    10    12    1
   12    10    13    1
   13    13    14    1
   14    13    15    1
   15    15    16    1
   16    15    17    1
   17     1    18    1
   18    15    18    1
   19    18    19    1
   20    18    20    1
   21    13    21    1
   22    21    22    1
@<TRIPOS>SUBSTRUCTURE
       1 MOL1            1 RESIDUE      1      MOL     
@<SCITEGIC>MOL_PROPERTY
VConf Rank
SciTegic.value.IntegerValue
997

@<SCITEGIC>MOL_PROPERTY
Conf_Id
SciTegic.value.IntegerValue
41

@<SCITEGIC>MOL_PROPERTY
Delta U+W
SciTegic.value.DoubleValue
-2.114

@<SCITEGIC>MOL_PROPERTY
U+W
SciTegic.value.DoubleValue
4.310

@<SCITEGIC>MOL_PROPERTY
Grad RMS
SciTegic.value.DoubleValue
0.000000

@<SCITEGIC>MOL_PROPERTY
U
SciTegic.value.DoubleValue
6.598

@<SCITEGIC>MOL_PROPERTY
W
SciTegic.value.DoubleValue
-2.289

@<SCITEGIC>MOL_PROPERTY
W(PB)
SciTegic.value.DoubleValue
-4.294

@<SCITEGIC>MOL_PROPERTY
W(SA)
SciTegic.value.DoubleValue
2.005

@<SCITEGIC>MOL_PROPERTY
Valence
SciTegic.value.DoubleValue
12.082

@<SCITEGIC>MOL_PROPERTY
Coulomb
SciTegic.value.DoubleValue
-7.801

@<SCITEGIC>MOL_PROPERTY
VdW
SciTegic.value.DoubleValue
2.317

@<SCITEGIC>MOL_PROPERTY
VdW6
SciTegic.value.DoubleValue
-9.658

@<SCITEGIC>MOL_PROPERTY
VdW12
SciTegic.value.DoubleValue
11.975

@<SCITEGIC>MOL_PROPERTY
Bond
SciTegic.value.DoubleValue
0.267

@<SCITEGIC>MOL_PROPERTY
Angle
SciTegic.value.DoubleValue
3.051

@<SCITEGIC>MOL_PROPERTY
Pdih
SciTegic.value.DoubleValue
8.764

@<SCITEGIC>MOL_PROPERTY
Idih
SciTegic.value.DoubleValue
0.000

@<SCITEGIC>MOL_PROPERTY
Tether
SciTegic.value.DoubleValue
0.000

@<TRIPOS>MOLECULE
guest-5_confgen4.mol2 : confsearch ligand conformer 998
          22          22           1
SMALL
USER_CHARGES
 
@<TRIPOS>ATOM
       1    C1      21.502833   18.699760   22.459362 C.3        1 MOL1        -0.1685
       2    H1      22.485817   18.215975   22.538388 H          1 MOL1         0.0832
       3    H2      20.994564   18.227178   21.607596 H          1 MOL1         0.0832
       4    C2      21.735017   20.203632   22.191321 C.3        1 MOL1        -0.1685
       5    H3      22.186721   20.669465   23.077630 H          1 MOL1         0.0832
       6    H4      22.475716   20.306261   21.386714 H          1 MOL1         0.0832
       7    C3      20.468459   20.988753   21.785567 C.3        1 MOL1        -0.1685
       8    H5      20.138774   20.661465   20.790539 H          1 MOL1         0.0832
       9    H6      20.747449   22.044679   21.670195 H          1 MOL1         0.0832
      10    C4      19.288295   20.902544   22.791035 C.3        1 MOL1        -0.1761
      11    H7      19.634878   21.154854   23.801222 H          1 MOL1         0.0832
      12    H8      18.565352   21.683359   22.522213 H          1 MOL1         0.0832
      13    C5      18.517796   19.557354   22.819785 C.3        1 MOL1         0.1218
      14    H9      17.556382   19.755213   23.315580 H          1 MOL1         0.0789
      15    C6      19.187776   18.410637   23.620601 C.3        1 MOL1        -0.1761
      16    H10     18.757668   18.406634   24.630578 H          1 MOL1         0.0832
      17    H11     18.896115   17.448408   23.179555 H          1 MOL1         0.0832
      18    C7      20.729046   18.439776   23.770727 C.3        1 MOL1        -0.1685
      19    H12     21.016296   19.184047   24.525685 H          1 MOL1         0.0832
      20    H13     21.044964   17.469941   24.178520 H          1 MOL1         0.0832
      21    O1      18.236262   19.115887   21.494355 O.3        1 MOL1        -0.5509
      22    H14     17.717708   18.289809   21.575640 H          1 MOL1         0.3779
@<TRIPOS>BOND
    1     1     2    1
    2     1     3    1
    3     1     4    1
    4     4     5    1
    5     4     6    1
    6     4     7    1
    7     7     8    1
    8     7     9    1
    9     7    10    1
   10    10    11    1
   11    10    12    1
   12    10    13    1
   13    13    14    1
   14    13    15    1
   15    15    16    1
   16    15    17    1
   17     1    18    1
   18    15    18    1
   19    18    19    1
   20    18    20    1
   21    13    21    1
   22    21    22    1
@<TRIPOS>SUBSTRUCTURE
       1 MOL1            1 RESIDUE      1      MOL     
@<SCITEGIC>MOL_PROPERTY
VConf Rank
SciTegic.value.IntegerValue
998

@<SCITEGIC>MOL_PROPERTY
Conf_Id
SciTegic.value.IntegerValue
104

@<SCITEGIC>MOL_PROPERTY
Delta U+W
SciTegic.value.DoubleValue
-1.172

@<SCITEGIC>MOL_PROPERTY
U+W
SciTegic.value.DoubleValue
5.252

@<SCITEGIC>MOL_PROPERTY
Grad RMS
SciTegic.value.DoubleValue
0.000000

@<SCITEGIC>MOL_PROPERTY
U
SciTegic.value.DoubleValue
7.482

@<SCITEGIC>MOL_PROPERTY
W
SciTegic.value.DoubleValue
-2.230

@<SCITEGIC>MOL_PROPERTY
W(PB)
SciTegic.value.DoubleValue
-4.220

@<SCITEGIC>MOL_PROPERTY
W(SA)
SciTegic.value.DoubleValue
1.990

@<SCITEGIC>MOL_PROPERTY
Valence
SciTegic.value.DoubleValue
12.309

@<SCITEGIC>MOL_PROPERTY
Coulomb
SciTegic.value.DoubleValue
-7.084

@<SCITEGIC>MOL_PROPERTY
VdW
SciTegic.value.DoubleValue
2.258

@<SCITEGIC>MOL_PROPERTY
VdW6
SciTegic.value.DoubleValue
-9.770

@<SCITEGIC>MOL_PROPERTY
VdW12
SciTegic.value.DoubleValue
12.028

@<SCITEGIC>MOL_PROPERTY
Bond
SciTegic.value.DoubleValue
0.284

@<SCITEGIC>MOL_PROPERTY
Angle
SciTegic.value.DoubleValue
3.491

@<SCITEGIC>MOL_PROPERTY
Pdih
SciTegic.value.DoubleValue
8.535

@<SCITEGIC>MOL_PROPERTY
Idih
SciTegic.value.DoubleValue
0.000

@<SCITEGIC>MOL_PROPERTY
Tether
SciTegic.value.DoubleValue
0.000

@<TRIPOS>MOLECULE
guest-5_confgen4.mol2 : confsearch ligand conformer 999
          22          22           1
SMALL
USER_CHARGES
 
@<TRIPOS>ATOM
       1    C1      21.576249   19.316776   23.256370 C.3        1 MOL1        -0.1685
       2    H1      21.909973   20.342173   23.047389 H          1 MOL1         0.0832
       3    H2      22.446242   18.796222   23.679541 H          1 MOL1         0.0832
       4    C2      21.178272   18.588977   21.951990 C.3        1 MOL1        -0.1685
       5    H3      22.093046   18.246823   21.448633 H          1 MOL1         0.0832
       6    H4      20.630607   17.670509   22.200619 H          1 MOL1         0.0832
       7    C3      20.366348   19.430068   20.934631 C.3        1 MOL1        -0.1685
       8    H5      19.775542   18.745512   20.310414 H          1 MOL1         0.0832
       9    H6      21.070463   19.917209   20.246268 H          1 MOL1         0.0832
      10    C4      19.433284   20.531826   21.506230 C.3        1 MOL1        -0.1761
      11    H7      20.035707   21.410498   21.770762 H          1 MOL1         0.0832
      12    H8      18.772305   20.869205   20.697353 H          1 MOL1         0.0832
      13    C5      18.552969   20.150257   22.718431 C.3        1 MOL1         0.1218
      14    H9      17.708272   20.853638   22.743410 H          1 MOL1         0.0789
      15    C6      19.293809   20.293757   24.067072 C.3        1 MOL1        -0.1761
      16    H10     19.673643   21.320190   24.152062 H          1 MOL1         0.0832
      17    H11     18.558567   20.182998   24.874782 H          1 MOL1         0.0832
      18    C7      20.457637   19.305011   24.325290 C.3        1 MOL1        -0.1685
      19    H12     20.905383   19.558772   25.295775 H          1 MOL1         0.0832
      20    H13     20.062571   18.286567   24.440057 H          1 MOL1         0.0832
      21    O1      18.050520   18.830828   22.574133 O.3        1 MOL1        -0.5509
      22    H14     18.852300   18.279706   22.475646 H          1 MOL1         0.3779
@<TRIPOS>BOND
    1     1     2    1
    2     1     3    1
    3     1     4    1
    4     4     5    1
    5     4     6    1
    6     4     7    1
    7     7     8    1
    8     7     9    1
    9     7    10    1
   10    10    11    1
   11    10    12    1
   12    10    13    1
   13    13    14    1
   14    13    15    1
   15    15    16    1
   16    15    17    1
   17     1    18    1
   18    15    18    1
   19    18    19    1
   20    18    20    1
   21    13    21    1
   22    21    22    1
@<TRIPOS>SUBSTRUCTURE
       1 MOL1            1 RESIDUE      1      MOL     
@<SCITEGIC>MOL_PROPERTY
VConf Rank
SciTegic.value.IntegerValue
999

@<SCITEGIC>MOL_PROPERTY
Conf_Id
SciTegic.value.IntegerValue
99

@<SCITEGIC>MOL_PROPERTY
Delta U+W
SciTegic.value.DoubleValue
-3.852

@<SCITEGIC>MOL_PROPERTY
U+W
SciTegic.value.DoubleValue
2.572

@<SCITEGIC>MOL_PROPERTY
Grad RMS
SciTegic.value.DoubleValue
0.000000

@<SCITEGIC>MOL_PROPERTY
U
SciTegic.value.DoubleValue
3.922

@<SCITEGIC>MOL_PROPERTY
W
SciTegic.value.DoubleValue
-1.350

@<SCITEGIC>MOL_PROPERTY
W(PB)
SciTegic.value.DoubleValue
-3.345

@<SCITEGIC>MOL_PROPERTY
W(SA)
SciTegic.value.DoubleValue
1.995

@<SCITEGIC>MOL_PROPERTY
Valence
SciTegic.value.DoubleValue
12.571

@<SCITEGIC>MOL_PROPERTY
Coulomb
SciTegic.value.DoubleValue
-10.581

@<SCITEGIC>MOL_PROPERTY
VdW
SciTegic.value.DoubleValue
1.932

@<SCITEGIC>MOL_PROPERTY
VdW6
SciTegic.value.DoubleValue
-10.483

@<SCITEGIC>MOL_PROPERTY
VdW12
SciTegic.value.DoubleValue
12.415

@<SCITEGIC>MOL_PROPERTY
Bond
SciTegic.value.DoubleValue
0.268

@<SCITEGIC>MOL_PROPERTY
Angle
SciTegic.value.DoubleValue
3.728

@<SCITEGIC>MOL_PROPERTY
Pdih
SciTegic.value.DoubleValue
8.575

@<SCITEGIC>MOL_PROPERTY
Idih
SciTegic.value.DoubleValue
0.000

@<SCITEGIC>MOL_PROPERTY
Tether
SciTegic.value.DoubleValue
0.000

@<TRIPOS>MOLECULE
guest-5_confgen4.mol2 : confsearch ligand conformer 1000
          22          22           1
SMALL
USER_CHARGES
 
@<TRIPOS>ATOM
       1    C1      20.374848   21.100046   22.031186 C.3        1 MOL1        -0.1685
       2    H1      21.042863   21.841086   21.570854 H          1 MOL1         0.0832
       3    H2      19.396213   21.595533   22.084307 H          1 MOL1         0.0832
       4    C2      20.905139   20.804747   23.464868 C.3        1 MOL1        -0.1685
       5    H3      21.802585   21.418095   23.625135 H          1 MOL1         0.0832
       6    H4      20.184220   21.156551   24.214910 H          1 MOL1         0.0832
       7    C3      21.282206   19.330286   23.759036 C.3        1 MOL1        -0.1685
       8    H5      21.816022   19.294025   24.718437 H          1 MOL1         0.0832
       9    H6      22.016150   18.981617   23.021929 H          1 MOL1         0.0832
      10    C4      20.098312   18.326620   23.835691 C.3        1 MOL1        -0.1761
      11    H7      20.491008   17.318362   23.651440 H          1 MOL1         0.0832
      12    H8      19.725457   18.308405   24.868476 H          1 MOL1         0.0832
      13    C5      18.882270   18.556576   22.904821 C.3        1 MOL1         0.1218
      14    H9      18.274739   17.640948   22.940967 H          1 MOL1         0.0789
      15    C6      19.202065   18.825676   21.413694 C.3        1 MOL1        -0.1761
      16    H10     19.488605   17.876367   20.943111 H          1 MOL1         0.0832
      17    H11     18.265404   19.121679   20.922731 H          1 MOL1         0.0832
      18    C7      20.289166   19.883132   21.074873 C.3        1 MOL1        -0.1685
      19    H12     21.270081   19.396735   21.005662 H          1 MOL1         0.0832
      20    H13     20.092581   20.253589   20.059569 H          1 MOL1         0.0832
      21    O1      18.082481   19.610306   23.417884 O.3        1 MOL1        -0.5509
      22    H14     18.663458   20.395519   23.364606 H          1 MOL1         0.3779
@<TRIPOS>BOND
    1     1     2    1
    2     1     3    1
    3     1     4    1
    4     4     5    1
    5     4     6    1
    6     4     7    1
    7     7     8    1
    8     7     9    1
    9     7    10    1
   10    10    11    1
   11    10    12    1
   12    10    13    1
   13    13    14    1
   14    13    15    1
   15    15    16    1
   16    15    17    1
   17     1    18    1
   18    15    18    1
   19    18    19    1
   20    18    20    1
   21    13    21    1
   22    21    22    1
@<TRIPOS>SUBSTRUCTURE
       1 MOL1            1 RESIDUE      1      MOL     
@<SCITEGIC>MOL_PROPERTY
VConf Rank
SciTegic.value.IntegerValue
1000

@<SCITEGIC>MOL_PROPERTY
Conf_Id
SciTegic.value.IntegerValue
98

@<SCITEGIC>MOL_PROPERTY
Delta U+W
SciTegic.value.DoubleValue
0.930

@<SCITEGIC>MOL_PROPERTY
U+W
SciTegic.value.DoubleValue
7.353

@<SCITEGIC>MOL_PROPERTY
Grad RMS
SciTegic.value.DoubleValue
0.000000

@<SCITEGIC>MOL_PROPERTY
U
SciTegic.value.DoubleValue
8.455

@<SCITEGIC>MOL_PROPERTY
W
SciTegic.value.DoubleValue
-1.102

@<SCITEGIC>MOL_PROPERTY
W(PB)
SciTegic.value.DoubleValue
-3.101

@<SCITEGIC>MOL_PROPERTY
W(SA)
SciTegic.value.DoubleValue
2.000

@<SCITEGIC>MOL_PROPERTY
Valence
SciTegic.value.DoubleValue
15.601

@<SCITEGIC>MOL_PROPERTY
Coulomb
SciTegic.value.DoubleValue
-10.573

@<SCITEGIC>MOL_PROPERTY
VdW
SciTegic.value.DoubleValue
3.427

@<SCITEGIC>MOL_PROPERTY
VdW6
SciTegic.value.DoubleValue
-11.360

@<SCITEGIC>MOL_PROPERTY
VdW12
SciTegic.value.DoubleValue
14.787

@<SCITEGIC>MOL_PROPERTY
Bond
SciTegic.value.DoubleValue
0.471

@<SCITEGIC>MOL_PROPERTY
Angle
SciTegic.value.DoubleValue
5.445

@<SCITEGIC>MOL_PROPERTY
Pdih
SciTegic.value.DoubleValue
9.685

@<SCITEGIC>MOL_PROPERTY
Idih
SciTegic.value.DoubleValue
0.000

@<SCITEGIC>MOL_PROPERTY
Tether
SciTegic.value.DoubleValue
0.000

