VeraChem MOL file


 22 22  0  0  0  0  0  0  0  0999 V2000     
   20.4983   19.3735   21.0132 C   0  0  0  0  0  0  0  0  0  0  0  0
   21.4442   19.8516   21.2988 H   0  0  0  0  0  0  0  0  0  0  0  0
   20.6152   19.1227   19.9502 H   0  0  0  0  0  0  0  0  0  0  0  0
   19.3348   20.3873   21.1559 C   0  0  0  0  0  0  0  0  0  0  0  0
   19.5589   21.2419   20.5029 H   0  0  0  0  0  0  0  0  0  0  0  0
   18.4108   19.9447   20.7597 H   0  0  0  0  0  0  0  0  0  0  0  0
   19.0682   20.9297   22.5874 C   0  0  0  0  0  0  0  0  0  0  0  0
   18.1863   20.4380   23.0180 H   0  0  0  0  0  0  0  0  0  0  0  0
   18.7896   21.9891   22.5059 H   0  0  0  0  0  0  0  0  0  0  0  0
   20.2621   20.8040   23.5706 C   0  0  0  0  0  0  0  0  0  0  0  0
   21.1563   21.2405   23.1085 H   0  0  0  0  0  0  0  0  0  0  0  0
   20.0581   21.4383   24.4437 H   0  0  0  0  0  0  0  0  0  0  0  0
   20.5911   19.3632   24.0602 C   0  0  0  0  0  0  0  0  0  0  0  0
   21.6790   19.2208   23.9874 H   0  0  0  0  0  0  0  0  0  0  0  0
   19.9004   18.2114   23.2878 C   0  0  0  0  0  0  0  0  0  0  0  0
   20.1121   17.2634   23.7992 H   0  0  0  0  0  0  0  0  0  0  0  0
   18.8116   18.3293   23.3453 H   0  0  0  0  0  0  0  0  0  0  0  0
   20.3255   18.0567   21.8062 C   0  0  0  0  0  0  0  0  0  0  0  0
   21.2749   17.5057   21.7645 H   0  0  0  0  0  0  0  0  0  0  0  0
   19.5868   17.4233   21.2964 H   0  0  0  0  0  0  0  0  0  0  0  0
   20.2056   19.2522   25.4256 O   0  0  0  0  0  0  0  0  0  0  0  0
   20.4753   18.3586   25.7237 H   0  0  0  0  0  0  0  0  0  0  0  0
  1  2  1  0  0  0  0
  1  3  1  0  0  0  0
  1  4  1  0  0  0  0
  4  5  1  0  0  0  0
  4  6  1  0  0  0  0
  4  7  1  0  0  0  0
  7  8  1  0  0  0  0
  7  9  1  0  0  0  0
  7 10  1  0  0  0  0
 10 11  1  0  0  0  0
 10 12  1  0  0  0  0
 10 13  1  0  0  0  0
 13 14  1  0  0  0  0
 13 15  1  0  0  0  0
 15 16  1  0  0  0  0
 15 17  1  0  0  0  0
  1 18  1  0  0  0  0
 15 18  1  0  0  0  0
 18 19  1  0  0  0  0
 18 20  1  0  0  0  0
 13 21  1  0  0  0  0
 21 22  1  0  0  0  0
M  END
> <VConfSearch Rank>
1

> <Conf_Id>
141

> <Delta U+W>
0.000

> <U+W>
6.423

> <U>
8.781

> <W>
-2.358

> <W(PB)>
-4.373

> <W(SA)>
2.015

> <Valence>
13.328

> <Coulomb>
-8.387

> <VdW>
3.840

> <VdW6>
-9.744

> <VdW12>
13.584

> <Bond>
0.436

> <Angle>
3.478

> <Pdih>
9.415

> <Idih>
0.000

> <Tether>
0.000

$$$$
VeraChem MOL file


 22 22  0  0  0  0  0  0  0  0999 V2000     
   20.4404   19.2610   21.0068 C   0  0  0  0  0  0  0  0  0  0  0  0
   21.4773   19.5174   21.2635 H   0  0  0  0  0  0  0  0  0  0  0  0
   20.4594   18.9326   19.9586 H   0  0  0  0  0  0  0  0  0  0  0  0
   19.5249   20.5060   21.0923 C   0  0  0  0  0  0  0  0  0  0  0  0
   19.7991   21.1981   20.2844 H   0  0  0  0  0  0  0  0  0  0  0  0
   18.4865   20.2090   20.8912 H   0  0  0  0  0  0  0  0  0  0  0  0
   19.5857   21.2785   22.4302 C   0  0  0  0  0  0  0  0  0  0  0  0
   18.8480   22.0915   22.3900 H   0  0  0  0  0  0  0  0  0  0  0  0
   20.5651   21.7670   22.5253 H   0  0  0  0  0  0  0  0  0  0  0  0
   19.3111   20.4240   23.6918 C   0  0  0  0  0  0  0  0  0  0  0  0
   19.1538   21.1134   24.5318 H   0  0  0  0  0  0  0  0  0  0  0  0
   18.3763   19.8592   23.5811 H   0  0  0  0  0  0  0  0  0  0  0  0
   20.4802   19.4737   24.0348 C   0  0  0  0  0  0  0  0  0  0  0  0
   21.4193   19.9620   23.7370 H   0  0  0  0  0  0  0  0  0  0  0  0
   20.4102   18.0937   23.3420 C   0  0  0  0  0  0  0  0  0  0  0  0
   21.4115   17.6467   23.3923 H   0  0  0  0  0  0  0  0  0  0  0  0
   19.7548   17.4293   23.9208 H   0  0  0  0  0  0  0  0  0  0  0  0
   19.9333   18.0807   21.8681 C   0  0  0  0  0  0  0  0  0  0  0  0
   20.2652   17.1379   21.4122 H   0  0  0  0  0  0  0  0  0  0  0  0
   18.8356   18.0515   21.8374 H   0  0  0  0  0  0  0  0  0  0  0  0
   20.5002   19.2604   25.4410 O   0  0  0  0  0  0  0  0  0  0  0  0
   20.6212   20.1390   25.8581 H   0  0  0  0  0  0  0  0  0  0  0  0
  1  2  1  0  0  0  0
  1  3  1  0  0  0  0
  1  4  1  0  0  0  0
  4  5  1  0  0  0  0
  4  6  1  0  0  0  0
  4  7  1  0  0  0  0
  7  8  1  0  0  0  0
  7  9  1  0  0  0  0
  7 10  1  0  0  0  0
 10 11  1  0  0  0  0
 10 12  1  0  0  0  0
 10 13  1  0  0  0  0
 13 14  1  0  0  0  0
 13 15  1  0  0  0  0
 15 16  1  0  0  0  0
 15 17  1  0  0  0  0
  1 18  1  0  0  0  0
 15 18  1  0  0  0  0
 18 19  1  0  0  0  0
 18 20  1  0  0  0  0
 13 21  1  0  0  0  0
 21 22  1  0  0  0  0
M  END
> <VConfSearch Rank>
2

> <Conf_Id>
144

> <Delta U+W>
-3.291

> <U+W>
3.132

> <U>
5.411

> <W>
-2.279

> <W(PB)>
-4.300

> <W(SA)>
2.021

> <Valence>
11.909

> <Coulomb>
-8.733

> <VdW>
2.236

> <VdW6>
-8.936

> <VdW12>
11.172

> <Bond>
0.223

> <Angle>
2.457

> <Pdih>
9.228

> <Idih>
0.000

> <Tether>
0.000

$$$$
VeraChem MOL file


 22 22  0  0  0  0  0  0  0  0999 V2000     
   19.6225   19.1090   21.0086 C   0  0  0  0  0  0  0  0  0  0  0  0
   19.7141   18.8615   19.9421 H   0  0  0  0  0  0  0  0  0  0  0  0
   18.5565   19.0080   21.2535 H   0  0  0  0  0  0  0  0  0  0  0  0
   20.0968   20.5682   21.2034 C   0  0  0  0  0  0  0  0  0  0  0  0
   21.1928   20.5898   21.2755 H   0  0  0  0  0  0  0  0  0  0  0  0
   19.8514   21.1451   20.3013 H   0  0  0  0  0  0  0  0  0  0  0  0
   19.4818   21.3013   22.4201 C   0  0  0  0  0  0  0  0  0  0  0  0
   18.5009   21.7057   22.1352 H   0  0  0  0  0  0  0  0  0  0  0  0
   20.1095   22.1740   22.6470 H   0  0  0  0  0  0  0  0  0  0  0  0
   19.3013   20.4615   23.7086 C   0  0  0  0  0  0  0  0  0  0  0  0
   19.1829   21.1581   24.5496 H   0  0  0  0  0  0  0  0  0  0  0  0
   18.3567   19.9058   23.6472 H   0  0  0  0  0  0  0  0  0  0  0  0
   20.4538   19.4780   24.0120 C   0  0  0  0  0  0  0  0  0  0  0  0
   21.4074   19.9156   23.6836 H   0  0  0  0  0  0  0  0  0  0  0  0
   20.2535   18.1033   23.3345 C   0  0  0  0  0  0  0  0  0  0  0  0
   20.9521   17.3848   23.7838 H   0  0  0  0  0  0  0  0  0  0  0  0
   19.2466   17.7279   23.5584 H   0  0  0  0  0  0  0  0  0  0  0  0
   20.4717   18.0878   21.8029 C   0  0  0  0  0  0  0  0  0  0  0  0
   21.5361   18.2507   21.5852 H   0  0  0  0  0  0  0  0  0  0  0  0
   20.2420   17.0789   21.4338 H   0  0  0  0  0  0  0  0  0  0  0  0
   20.5044   19.2688   25.4169 O   0  0  0  0  0  0  0  0  0  0  0  0
   19.6411   18.8818   25.6702 H   0  0  0  0  0  0  0  0  0  0  0  0
  1  2  1  0  0  0  0
  1  3  1  0  0  0  0
  1  4  1  0  0  0  0
  4  5  1  0  0  0  0
  4  6  1  0  0  0  0
  4  7  1  0  0  0  0
  7  8  1  0  0  0  0
  7  9  1  0  0  0  0
  7 10  1  0  0  0  0
 10 11  1  0  0  0  0
 10 12  1  0  0  0  0
 10 13  1  0  0  0  0
 13 14  1  0  0  0  0
 13 15  1  0  0  0  0
 15 16  1  0  0  0  0
 15 17  1  0  0  0  0
  1 18  1  0  0  0  0
 15 18  1  0  0  0  0
 18 19  1  0  0  0  0
 18 20  1  0  0  0  0
 13 21  1  0  0  0  0
 21 22  1  0  0  0  0
M  END
> <VConfSearch Rank>
3

> <Conf_Id>
76

> <Delta U+W>
-3.175

> <U+W>
3.248

> <U>
5.336

> <W>
-2.088

> <W(PB)>
-4.098

> <W(SA)>
2.010

> <Valence>
12.390

> <Coulomb>
-9.270

> <VdW>
2.216

> <VdW6>
-8.967

> <VdW12>
11.183

> <Bond>
0.218

> <Angle>
2.426

> <Pdih>
9.745

> <Idih>
0.000

> <Tether>
0.000

$$$$
VeraChem MOL file


 22 22  0  0  0  0  0  0  0  0999 V2000     
   19.7079   18.9878   20.9378 C   0  0  0  0  0  0  0  0  0  0  0  0
   20.4382   18.7572   20.1503 H   0  0  0  0  0  0  0  0  0  0  0  0
   18.7252   18.7370   20.5156 H   0  0  0  0  0  0  0  0  0  0  0  0
   19.7606   20.5091   21.2163 C   0  0  0  0  0  0  0  0  0  0  0  0
   20.7973   20.8618   21.1307 H   0  0  0  0  0  0  0  0  0  0  0  0
   19.2096   21.0201   20.4150 H   0  0  0  0  0  0  0  0  0  0  0  0
   19.1800   20.9447   22.5819 C   0  0  0  0  0  0  0  0  0  0  0  0
   18.2991   20.3435   22.8450 H   0  0  0  0  0  0  0  0  0  0  0  0
   18.8251   21.9798   22.4870 H   0  0  0  0  0  0  0  0  0  0  0  0
   20.2316   20.9089   23.7199 C   0  0  0  0  0  0  0  0  0  0  0  0
   21.1275   21.4565   23.4006 H   0  0  0  0  0  0  0  0  0  0  0  0
   19.8365   21.4660   24.5795 H   0  0  0  0  0  0  0  0  0  0  0  0
   20.6551   19.5072   24.2146 C   0  0  0  0  0  0  0  0  0  0  0  0
   21.5210   19.6529   24.8766 H   0  0  0  0  0  0  0  0  0  0  0  0
   21.0921   18.5201   23.1032 C   0  0  0  0  0  0  0  0  0  0  0  0
   21.9175   18.9538   22.5240 H   0  0  0  0  0  0  0  0  0  0  0  0
   21.5102   17.6322   23.5948 H   0  0  0  0  0  0  0  0  0  0  0  0
   19.9599   18.0586   22.1491 C   0  0  0  0  0  0  0  0  0  0  0  0
   20.2080   17.0609   21.7627 H   0  0  0  0  0  0  0  0  0  0  0  0
   19.0246   17.9290   22.7094 H   0  0  0  0  0  0  0  0  0  0  0  0
   19.5987   18.9416   24.9841 O   0  0  0  0  0  0  0  0  0  0  0  0
   19.8865   18.0393   25.2321 H   0  0  0  0  0  0  0  0  0  0  0  0
  1  2  1  0  0  0  0
  1  3  1  0  0  0  0
  1  4  1  0  0  0  0
  4  5  1  0  0  0  0
  4  6  1  0  0  0  0
  4  7  1  0  0  0  0
  7  8  1  0  0  0  0
  7  9  1  0  0  0  0
  7 10  1  0  0  0  0
 10 11  1  0  0  0  0
 10 12  1  0  0  0  0
 10 13  1  0  0  0  0
 13 14  1  0  0  0  0
 13 15  1  0  0  0  0
 15 16  1  0  0  0  0
 15 17  1  0  0  0  0
  1 18  1  0  0  0  0
 15 18  1  0  0  0  0
 18 19  1  0  0  0  0
 18 20  1  0  0  0  0
 13 21  1  0  0  0  0
 21 22  1  0  0  0  0
M  END
> <VConfSearch Rank>
4

> <Conf_Id>
95

> <Delta U+W>
-2.289

> <U+W>
4.134

> <U>
6.373

> <W>
-2.240

> <W(PB)>
-4.254

> <W(SA)>
2.015

> <Valence>
12.093

> <Coulomb>
-8.058

> <VdW>
2.339

> <VdW6>
-9.683

> <VdW12>
12.022

> <Bond>
0.268

> <Angle>
3.005

> <Pdih>
8.820

> <Idih>
0.000

> <Tether>
0.000

$$$$
VeraChem MOL file


 22 22  0  0  0  0  0  0  0  0999 V2000     
   19.7097   18.9892   20.9371 C   0  0  0  0  0  0  0  0  0  0  0  0
   20.4424   18.7612   20.1510 H   0  0  0  0  0  0  0  0  0  0  0  0
   18.7287   18.7356   20.5126 H   0  0  0  0  0  0  0  0  0  0  0  0
   19.7568   20.5104   21.2162 C   0  0  0  0  0  0  0  0  0  0  0  0
   20.7918   20.8670   21.1264 H   0  0  0  0  0  0  0  0  0  0  0  0
   19.2009   21.0193   20.4169 H   0  0  0  0  0  0  0  0  0  0  0  0
   19.1795   20.9440   22.5838 C   0  0  0  0  0  0  0  0  0  0  0  0
   18.2996   20.3417   22.8480 H   0  0  0  0  0  0  0  0  0  0  0  0
   18.8237   21.9790   22.4902 H   0  0  0  0  0  0  0  0  0  0  0  0
   20.2362   20.9085   23.7167 C   0  0  0  0  0  0  0  0  0  0  0  0
   21.1344   21.4464   23.3867 H   0  0  0  0  0  0  0  0  0  0  0  0
   19.8529   21.4797   24.5721 H   0  0  0  0  0  0  0  0  0  0  0  0
   20.6546   19.5064   24.2153 C   0  0  0  0  0  0  0  0  0  0  0  0
   21.5201   19.6503   24.8782 H   0  0  0  0  0  0  0  0  0  0  0  0
   21.0918   18.5171   23.1061 C   0  0  0  0  0  0  0  0  0  0  0  0
   21.9243   18.9427   22.5314 H   0  0  0  0  0  0  0  0  0  0  0  0
   21.4963   17.6276   23.6060 H   0  0  0  0  0  0  0  0  0  0  0  0
   19.9615   18.0591   22.1479 C   0  0  0  0  0  0  0  0  0  0  0  0
   20.2098   17.0616   21.7611 H   0  0  0  0  0  0  0  0  0  0  0  0
   19.0269   17.9278   22.7091 H   0  0  0  0  0  0  0  0  0  0  0  0
   19.5959   18.9432   24.9840 O   0  0  0  0  0  0  0  0  0  0  0  0
   19.3485   19.6119   25.6547 H   0  0  0  0  0  0  0  0  0  0  0  0
  1  2  1  0  0  0  0
  1  3  1  0  0  0  0
  1  4  1  0  0  0  0
  4  5  1  0  0  0  0
  4  6  1  0  0  0  0
  4  7  1  0  0  0  0
  7  8  1  0  0  0  0
  7  9  1  0  0  0  0
  7 10  1  0  0  0  0
 10 11  1  0  0  0  0
 10 12  1  0  0  0  0
 10 13  1  0  0  0  0
 13 14  1  0  0  0  0
 13 15  1  0  0  0  0
 15 16  1  0  0  0  0
 15 17  1  0  0  0  0
  1 18  1  0  0  0  0
 15 18  1  0  0  0  0
 18 19  1  0  0  0  0
 18 20  1  0  0  0  0
 13 21  1  0  0  0  0
 21 22  1  0  0  0  0
M  END
> <VConfSearch Rank>
5

> <Conf_Id>
41

> <Delta U+W>
-2.114

> <U+W>
4.310

> <U>
6.598

> <W>
-2.289

> <W(PB)>
-4.294

> <W(SA)>
2.005

> <Valence>
12.082

> <Coulomb>
-7.801

> <VdW>
2.317

> <VdW6>
-9.658

> <VdW12>
11.975

> <Bond>
0.267

> <Angle>
3.051

> <Pdih>
8.764

> <Idih>
0.000

> <Tether>
0.000

$$$$
VeraChem MOL file


 22 22  0  0  0  0  0  0  0  0999 V2000     
   19.3219   18.9087   21.3745 C   0  0  0  0  0  0  0  0  0  0  0  0
   19.0561   18.5159   20.3837 H   0  0  0  0  0  0  0  0  0  0  0  0
   18.5342   18.5700   22.0615 H   0  0  0  0  0  0  0  0  0  0  0  0
   19.3414   20.4510   21.2832 C   0  0  0  0  0  0  0  0  0  0  0  0
   20.1738   20.7707   20.6418 H   0  0  0  0  0  0  0  0  0  0  0  0
   18.4255   20.7840   20.7763 H   0  0  0  0  0  0  0  0  0  0  0  0
   19.4316   21.1758   22.6440 C   0  0  0  0  0  0  0  0  0  0  0  0
   18.4974   21.0248   23.2011 H   0  0  0  0  0  0  0  0  0  0  0  0
   19.4865   22.2553   22.4493 H   0  0  0  0  0  0  0  0  0  0  0  0
   20.6461   20.7762   23.5252 C   0  0  0  0  0  0  0  0  0  0  0  0
   21.5742   20.8528   22.9447 H   0  0  0  0  0  0  0  0  0  0  0  0
   20.7350   21.5217   24.3258 H   0  0  0  0  0  0  0  0  0  0  0  0
   20.5635   19.3848   24.2043 C   0  0  0  0  0  0  0  0  0  0  0  0
   21.3055   19.3855   25.0159 H   0  0  0  0  0  0  0  0  0  0  0  0
   20.9106   18.1706   23.3040 C   0  0  0  0  0  0  0  0  0  0  0  0
   21.9681   17.9225   23.4629 H   0  0  0  0  0  0  0  0  0  0  0  0
   20.3528   17.2930   23.6563 H   0  0  0  0  0  0  0  0  0  0  0  0
   20.6907   18.3174   21.7779 C   0  0  0  0  0  0  0  0  0  0  0  0
   21.4990   18.9191   21.3407 H   0  0  0  0  0  0  0  0  0  0  0  0
   20.7892   17.3205   21.3272 H   0  0  0  0  0  0  0  0  0  0  0  0
   19.2803   19.1934   24.7939 O   0  0  0  0  0  0  0  0  0  0  0  0
   19.3006   18.3218   25.2386 H   0  0  0  0  0  0  0  0  0  0  0  0
  1  2  1  0  0  0  0
  1  3  1  0  0  0  0
  1  4  1  0  0  0  0
  4  5  1  0  0  0  0
  4  6  1  0  0  0  0
  4  7  1  0  0  0  0
  7  8  1  0  0  0  0
  7  9  1  0  0  0  0
  7 10  1  0  0  0  0
 10 11  1  0  0  0  0
 10 12  1  0  0  0  0
 10 13  1  0  0  0  0
 13 14  1  0  0  0  0
 13 15  1  0  0  0  0
 15 16  1  0  0  0  0
 15 17  1  0  0  0  0
  1 18  1  0  0  0  0
 15 18  1  0  0  0  0
 18 19  1  0  0  0  0
 18 20  1  0  0  0  0
 13 21  1  0  0  0  0
 21 22  1  0  0  0  0
M  END
> <VConfSearch Rank>
6

> <Conf_Id>
104

> <Delta U+W>
-1.172

> <U+W>
5.252

> <U>
7.482

> <W>
-2.230

> <W(PB)>
-4.220

> <W(SA)>
1.990

> <Valence>
12.309

> <Coulomb>
-7.084

> <VdW>
2.258

> <VdW6>
-9.770

> <VdW12>
12.028

> <Bond>
0.284

> <Angle>
3.491

> <Pdih>
8.535

> <Idih>
0.000

> <Tether>
0.000

$$$$
VeraChem MOL file


 22 22  0  0  0  0  0  0  0  0999 V2000     
   20.0231   19.2235   21.0653 C   0  0  0  0  0  0  0  0  0  0  0  0
   20.9758   19.7306   20.8610 H   0  0  0  0  0  0  0  0  0  0  0  0
   19.6692   18.8439   20.0970 H   0  0  0  0  0  0  0  0  0  0  0  0
   18.9688   20.2219   21.5956 C   0  0  0  0  0  0  0  0  0  0  0  0
   18.5530   20.7776   20.7438 H   0  0  0  0  0  0  0  0  0  0  0  0
   18.1195   19.6659   22.0137 H   0  0  0  0  0  0  0  0  0  0  0  0
   19.4835   21.2567   22.6281 C   0  0  0  0  0  0  0  0  0  0  0  0
   18.6354   21.5831   23.2457 H   0  0  0  0  0  0  0  0  0  0  0  0
   19.8115   22.1544   22.0863 H   0  0  0  0  0  0  0  0  0  0  0  0
   20.6495   20.8177   23.5548 C   0  0  0  0  0  0  0  0  0  0  0  0
   21.5939   20.8838   22.9992 H   0  0  0  0  0  0  0  0  0  0  0  0
   20.7380   21.5571   24.3614 H   0  0  0  0  0  0  0  0  0  0  0  0
   20.5488   19.4153   24.1976 C   0  0  0  0  0  0  0  0  0  0  0  0
   21.1948   19.4163   25.0873 H   0  0  0  0  0  0  0  0  0  0  0  0
   21.0662   18.2919   23.2710 C   0  0  0  0  0  0  0  0  0  0  0  0
   22.0971   18.5267   22.9756 H   0  0  0  0  0  0  0  0  0  0  0  0
   21.1307   17.3666   23.8583 H   0  0  0  0  0  0  0  0  0  0  0  0
   20.2319   18.0066   21.9978 C   0  0  0  0  0  0  0  0  0  0  0  0
   20.7455   17.2200   21.4284 H   0  0  0  0  0  0  0  0  0  0  0  0
   19.2590   17.5804   22.2778 H   0  0  0  0  0  0  0  0  0  0  0  0
   19.2141   19.1445   24.5968 O   0  0  0  0  0  0  0  0  0  0  0  0
   18.6944   19.2433   23.7744 H   0  0  0  0  0  0  0  0  0  0  0  0
  1  2  1  0  0  0  0
  1  3  1  0  0  0  0
  1  4  1  0  0  0  0
  4  5  1  0  0  0  0
  4  6  1  0  0  0  0
  4  7  1  0  0  0  0
  7  8  1  0  0  0  0
  7  9  1  0  0  0  0
  7 10  1  0  0  0  0
 10 11  1  0  0  0  0
 10 12  1  0  0  0  0
 10 13  1  0  0  0  0
 13 14  1  0  0  0  0
 13 15  1  0  0  0  0
 15 16  1  0  0  0  0
 15 17  1  0  0  0  0
  1 18  1  0  0  0  0
 15 18  1  0  0  0  0
 18 19  1  0  0  0  0
 18 20  1  0  0  0  0
 13 21  1  0  0  0  0
 21 22  1  0  0  0  0
M  END
> <VConfSearch Rank>
7

> <Conf_Id>
99

> <Delta U+W>
-3.852

> <U+W>
2.572

> <U>
3.922

> <W>
-1.350

> <W(PB)>
-3.345

> <W(SA)>
1.995

> <Valence>
12.571

> <Coulomb>
-10.581

> <VdW>
1.932

> <VdW6>
-10.483

> <VdW12>
12.415

> <Bond>
0.268

> <Angle>
3.728

> <Pdih>
8.575

> <Idih>
0.000

> <Tether>
0.000

$$$$
VeraChem MOL file


 22 22  0  0  0  0  0  0  0  0999 V2000     
   19.2715   18.8030   21.4478 C   0  0  0  0  0  0  0  0  0  0  0  0
   19.0932   18.5960   20.3835 H   0  0  0  0  0  0  0  0  0  0  0  0
   18.5749   18.1452   21.9847 H   0  0  0  0  0  0  0  0  0  0  0  0
   18.9115   20.2946   21.7109 C   0  0  0  0  0  0  0  0  0  0  0  0
   18.5772   20.7332   20.7605 H   0  0  0  0  0  0  0  0  0  0  0  0
   18.0400   20.3619   22.3758 H   0  0  0  0  0  0  0  0  0  0  0  0
   20.0558   21.1820   22.2638 C   0  0  0  0  0  0  0  0  0  0  0  0
   19.7332   22.2311   22.2190 H   0  0  0  0  0  0  0  0  0  0  0  0
   20.9216   21.1309   21.5920 H   0  0  0  0  0  0  0  0  0  0  0  0
   20.5048   20.8847   23.7215 C   0  0  0  0  0  0  0  0  0  0  0  0
   21.5243   21.2700   23.8517 H   0  0  0  0  0  0  0  0  0  0  0  0
   19.8814   21.4776   24.4041 H   0  0  0  0  0  0  0  0  0  0  0  0
   20.4691   19.4168   24.2135 C   0  0  0  0  0  0  0  0  0  0  0  0
   21.0255   19.3840   25.1612 H   0  0  0  0  0  0  0  0  0  0  0  0
   21.1128   18.3645   23.2773 C   0  0  0  0  0  0  0  0  0  0  0  0
   22.2041   18.4517   23.3551 H   0  0  0  0  0  0  0  0  0  0  0  0
   20.8717   17.3718   23.6802 H   0  0  0  0  0  0  0  0  0  0  0  0
   20.7299   18.3892   21.7715 C   0  0  0  0  0  0  0  0  0  0  0  0
   21.4280   19.0330   21.2223 H   0  0  0  0  0  0  0  0  0  0  0  0
   20.9032   17.3837   21.3642 H   0  0  0  0  0  0  0  0  0  0  0  0
   19.1307   19.0433   24.5006 O   0  0  0  0  0  0  0  0  0  0  0  0
   18.6815   19.0878   23.6327 H   0  0  0  0  0  0  0  0  0  0  0  0
  1  2  1  0  0  0  0
  1  3  1  0  0  0  0
  1  4  1  0  0  0  0
  4  5  1  0  0  0  0
  4  6  1  0  0  0  0
  4  7  1  0  0  0  0
  7  8  1  0  0  0  0
  7  9  1  0  0  0  0
  7 10  1  0  0  0  0
 10 11  1  0  0  0  0
 10 12  1  0  0  0  0
 10 13  1  0  0  0  0
 13 14  1  0  0  0  0
 13 15  1  0  0  0  0
 15 16  1  0  0  0  0
 15 17  1  0  0  0  0
  1 18  1  0  0  0  0
 15 18  1  0  0  0  0
 18 19  1  0  0  0  0
 18 20  1  0  0  0  0
 13 21  1  0  0  0  0
 21 22  1  0  0  0  0
M  END
> <VConfSearch Rank>
8

> <Conf_Id>
98

> <Delta U+W>
0.930

> <U+W>
7.353

> <U>
8.455

> <W>
-1.102

> <W(PB)>
-3.101

> <W(SA)>
2.000

> <Valence>
15.601

> <Coulomb>
-10.573

> <VdW>
3.427

> <VdW6>
-11.360

> <VdW12>
14.787

> <Bond>
0.471

> <Angle>
5.445

> <Pdih>
9.685

> <Idih>
0.000

> <Tether>
0.000

$$$$
VeraChem MOL file


 22 22  0  0  0  0  0  0  0  0999 V2000     
   18.5371   19.8774   21.8488 C   0  0  0  0  0  0  0  0  0  0  0  0
   18.0667   19.9192   22.8397 H   0  0  0  0  0  0  0  0  0  0  0  0
   17.7364   20.1343   21.1420 H   0  0  0  0  0  0  0  0  0  0  0  0
   19.0101   18.4312   21.5540 C   0  0  0  0  0  0  0  0  0  0  0  0
   18.1275   17.7787   21.6007 H   0  0  0  0  0  0  0  0  0  0  0  0
   19.3731   18.3668   20.5192 H   0  0  0  0  0  0  0  0  0  0  0  0
   20.0896   17.8534   22.5107 C   0  0  0  0  0  0  0  0  0  0  0  0
   21.0722   17.8671   22.0215 H   0  0  0  0  0  0  0  0  0  0  0  0
   19.8694   16.7895   22.6729 H   0  0  0  0  0  0  0  0  0  0  0  0
   20.1889   18.5563   23.8905 C   0  0  0  0  0  0  0  0  0  0  0  0
   19.1918   18.5963   24.3466 H   0  0  0  0  0  0  0  0  0  0  0  0
   20.7799   17.9180   24.5610 H   0  0  0  0  0  0  0  0  0  0  0  0
   20.8052   19.9859   23.8827 C   0  0  0  0  0  0  0  0  0  0  0  0
   20.1671   20.6334   24.5011 H   0  0  0  0  0  0  0  0  0  0  0  0
   20.9610   20.6484   22.4909 C   0  0  0  0  0  0  0  0  0  0  0  0
   21.5132   21.5903   22.6053 H   0  0  0  0  0  0  0  0  0  0  0  0
   21.5953   20.0217   21.8526 H   0  0  0  0  0  0  0  0  0  0  0  0
   19.6357   20.9621   21.7526 C   0  0  0  0  0  0  0  0  0  0  0  0
   19.2236   21.9015   22.1457 H   0  0  0  0  0  0  0  0  0  0  0  0
   19.8629   21.1521   20.6948 H   0  0  0  0  0  0  0  0  0  0  0  0
   22.0992   19.9220   24.4716 O   0  0  0  0  0  0  0  0  0  0  0  0
   22.4395   20.8402   24.5065 H   0  0  0  0  0  0  0  0  0  0  0  0
  1  2  1  0  0  0  0
  1  3  1  0  0  0  0
  1  4  1  0  0  0  0
  4  5  1  0  0  0  0
  4  6  1  0  0  0  0
  4  7  1  0  0  0  0
  7  8  1  0  0  0  0
  7  9  1  0  0  0  0
  7 10  1  0  0  0  0
 10 11  1  0  0  0  0
 10 12  1  0  0  0  0
 10 13  1  0  0  0  0
 13 14  1  0  0  0  0
 13 15  1  0  0  0  0
 15 16  1  0  0  0  0
 15 17  1  0  0  0  0
  1 18  1  0  0  0  0
 15 18  1  0  0  0  0
 18 19  1  0  0  0  0
 18 20  1  0  0  0  0
 13 21  1  0  0  0  0
 21 22  1  0  0  0  0
M  END
> <VConfSearch Rank>
9

> <Conf_Id>
141

> <Delta U+W>
0.000

> <U+W>
6.423

> <U>
8.781

> <W>
-2.358

> <W(PB)>
-4.373

> <W(SA)>
2.015

> <Valence>
13.328

> <Coulomb>
-8.387

> <VdW>
3.840

> <VdW6>
-9.744

> <VdW12>
13.584

> <Bond>
0.436

> <Angle>
3.478

> <Pdih>
9.415

> <Idih>
0.000

> <Tether>
0.000

$$$$
VeraChem MOL file


 22 22  0  0  0  0  0  0  0  0999 V2000     
   18.5422   18.7948   23.2182 C   0  0  0  0  0  0  0  0  0  0  0  0
   19.1667   18.2175   23.9133 H   0  0  0  0  0  0  0  0  0  0  0  0
   17.5056   18.4891   23.4157 H   0  0  0  0  0  0  0  0  0  0  0  0
   18.8672   18.4310   21.7493 C   0  0  0  0  0  0  0  0  0  0  0  0
   18.5323   17.4018   21.5614 H   0  0  0  0  0  0  0  0  0  0  0  0
   18.2735   19.0655   21.0771 H   0  0  0  0  0  0  0  0  0  0  0  0
   20.3603   18.5307   21.3603 C   0  0  0  0  0  0  0  0  0  0  0  0
   20.4494   18.3160   20.2866 H   0  0  0  0  0  0  0  0  0  0  0  0
   20.9243   17.7389   21.8720 H   0  0  0  0  0  0  0  0  0  0  0  0
   21.0206   19.9015   21.6465 C   0  0  0  0  0  0  0  0  0  0  0  0
   21.9863   19.9203   21.1244 H   0  0  0  0  0  0  0  0  0  0  0  0
   20.4244   20.7162   21.2154 H   0  0  0  0  0  0  0  0  0  0  0  0
   21.2603   20.1452   23.1535 C   0  0  0  0  0  0  0  0  0  0  0  0
   21.4729   19.1769   23.6291 H   0  0  0  0  0  0  0  0  0  0  0  0
   20.0721   20.7992   23.8949 C   0  0  0  0  0  0  0  0  0  0  0  0
   20.2181   20.6290   24.9694 H   0  0  0  0  0  0  0  0  0  0  0  0
   20.1112   21.8878   23.7549 H   0  0  0  0  0  0  0  0  0  0  0  0
   18.6554   20.3110   23.5019 C   0  0  0  0  0  0  0  0  0  0  0  0
   17.9675   20.5737   24.3172 H   0  0  0  0  0  0  0  0  0  0  0  0
   18.3025   20.8736   22.6269 H   0  0  0  0  0  0  0  0  0  0  0  0
   22.3943   20.9900   23.3065 O   0  0  0  0  0  0  0  0  0  0  0  0
   23.1519   20.5227   22.8964 H   0  0  0  0  0  0  0  0  0  0  0  0
  1  2  1  0  0  0  0
  1  3  1  0  0  0  0
  1  4  1  0  0  0  0
  4  5  1  0  0  0  0
  4  6  1  0  0  0  0
  4  7  1  0  0  0  0
  7  8  1  0  0  0  0
  7  9  1  0  0  0  0
  7 10  1  0  0  0  0
 10 11  1  0  0  0  0
 10 12  1  0  0  0  0
 10 13  1  0  0  0  0
 13 14  1  0  0  0  0
 13 15  1  0  0  0  0
 15 16  1  0  0  0  0
 15 17  1  0  0  0  0
  1 18  1  0  0  0  0
 15 18  1  0  0  0  0
 18 19  1  0  0  0  0
 18 20  1  0  0  0  0
 13 21  1  0  0  0  0
 21 22  1  0  0  0  0
M  END
> <VConfSearch Rank>
10

> <Conf_Id>
144

> <Delta U+W>
-3.291

> <U+W>
3.132

> <U>
5.411

> <W>
-2.279

> <W(PB)>
-4.300

> <W(SA)>
2.021

> <Valence>
11.909

> <Coulomb>
-8.733

> <VdW>
2.236

> <VdW6>
-8.936

> <VdW12>
11.172

> <Bond>
0.223

> <Angle>
2.457

> <Pdih>
9.228

> <Idih>
0.000

> <Tether>
0.000

$$$$
VeraChem MOL file


 22 22  0  0  0  0  0  0  0  0999 V2000     
   21.6278   19.5662   23.0455 C   0  0  0  0  0  0  0  0  0  0  0  0
   22.5958   19.6715   23.5542 H   0  0  0  0  0  0  0  0  0  0  0  0
   21.8528   19.1873   22.0393 H   0  0  0  0  0  0  0  0  0  0  0  0
   20.9707   20.9645   22.9735 C   0  0  0  0  0  0  0  0  0  0  0  0
   20.4660   21.1806   23.9251 H   0  0  0  0  0  0  0  0  0  0  0  0
   21.7596   21.7235   22.8816 H   0  0  0  0  0  0  0  0  0  0  0  0
   19.9785   21.1640   21.8024 C   0  0  0  0  0  0  0  0  0  0  0  0
   20.5420   21.4318   20.8982 H   0  0  0  0  0  0  0  0  0  0  0  0
   19.3499   22.0355   22.0310 H   0  0  0  0  0  0  0  0  0  0  0  0
   19.0661   19.9597   21.4626 C   0  0  0  0  0  0  0  0  0  0  0  0
   18.2200   20.3356   20.8716 H   0  0  0  0  0  0  0  0  0  0  0  0
   19.6086   19.2717   20.8014 H   0  0  0  0  0  0  0  0  0  0  0  0
   18.5343   19.1797   22.6859 C   0  0  0  0  0  0  0  0  0  0  0  0
   18.3609   19.8754   23.5192 H   0  0  0  0  0  0  0  0  0  0  0  0
   19.4974   18.0586   23.1382 C   0  0  0  0  0  0  0  0  0  0  0  0
   18.9623   17.3924   23.8280 H   0  0  0  0  0  0  0  0  0  0  0  0
   19.7732   17.4415   22.2732 H   0  0  0  0  0  0  0  0  0  0  0  0
   20.7848   18.5443   23.8456 C   0  0  0  0  0  0  0  0  0  0  0  0
   20.5236   18.9726   24.8230 H   0  0  0  0  0  0  0  0  0  0  0  0
   21.4098   17.6670   24.0610 H   0  0  0  0  0  0  0  0  0  0  0  0
   17.2988   18.5752   22.3278 O   0  0  0  0  0  0  0  0  0  0  0  0
   17.4933   17.9671   21.5852 H   0  0  0  0  0  0  0  0  0  0  0  0
  1  2  1  0  0  0  0
  1  3  1  0  0  0  0
  1  4  1  0  0  0  0
  4  5  1  0  0  0  0
  4  6  1  0  0  0  0
  4  7  1  0  0  0  0
  7  8  1  0  0  0  0
  7  9  1  0  0  0  0
  7 10  1  0  0  0  0
 10 11  1  0  0  0  0
 10 12  1  0  0  0  0
 10 13  1  0  0  0  0
 13 14  1  0  0  0  0
 13 15  1  0  0  0  0
 15 16  1  0  0  0  0
 15 17  1  0  0  0  0
  1 18  1  0  0  0  0
 15 18  1  0  0  0  0
 18 19  1  0  0  0  0
 18 20  1  0  0  0  0
 13 21  1  0  0  0  0
 21 22  1  0  0  0  0
M  END
> <VConfSearch Rank>
11

> <Conf_Id>
76

> <Delta U+W>
-3.175

> <U+W>
3.248

> <U>
5.336

> <W>
-2.088

> <W(PB)>
-4.098

> <W(SA)>
2.010

> <Valence>
12.390

> <Coulomb>
-9.270

> <VdW>
2.216

> <VdW6>
-8.967

> <VdW12>
11.183

> <Bond>
0.218

> <Angle>
2.426

> <Pdih>
9.745

> <Idih>
0.000

> <Tether>
0.000

$$$$
VeraChem MOL file


 22 22  0  0  0  0  0  0  0  0999 V2000     
   20.9088   21.0160   21.8603 C   0  0  0  0  0  0  0  0  0  0  0  0
   20.5934   22.0679   21.8884 H   0  0  0  0  0  0  0  0  0  0  0  0
   21.8632   21.0054   21.3164 H   0  0  0  0  0  0  0  0  0  0  0  0
   19.8603   20.2179   21.0489 C   0  0  0  0  0  0  0  0  0  0  0  0
   18.8578   20.6185   21.2511 H   0  0  0  0  0  0  0  0  0  0  0  0
   20.0419   20.4061   19.9819 H   0  0  0  0  0  0  0  0  0  0  0  0
   19.8641   18.6916   21.2974 C   0  0  0  0  0  0  0  0  0  0  0  0
   20.8878   18.3179   21.4363 H   0  0  0  0  0  0  0  0  0  0  0  0
   19.4796   18.1981   20.3946 H   0  0  0  0  0  0  0  0  0  0  0  0
   18.9594   18.2746   22.4847 C   0  0  0  0  0  0  0  0  0  0  0  0
   17.9653   18.7211   22.3549 H   0  0  0  0  0  0  0  0  0  0  0  0
   18.8028   17.1888   22.4413 H   0  0  0  0  0  0  0  0  0  0  0  0
   19.4815   18.6244   23.8969 C   0  0  0  0  0  0  0  0  0  0  0  0
   18.6556   18.4318   24.5969 H   0  0  0  0  0  0  0  0  0  0  0  0
   19.9113   20.0998   24.0940 C   0  0  0  0  0  0  0  0  0  0  0  0
   19.0736   20.7668   23.8527 H   0  0  0  0  0  0  0  0  0  0  0  0
   20.1080   20.2472   25.1638 H   0  0  0  0  0  0  0  0  0  0  0  0
   21.1753   20.5292   23.3046 C   0  0  0  0  0  0  0  0  0  0  0  0
   21.6721   21.3438   23.8486 H   0  0  0  0  0  0  0  0  0  0  0  0
   21.9034   19.7076   23.2834 H   0  0  0  0  0  0  0  0  0  0  0  0
   20.5572   17.7524   24.2294 O   0  0  0  0  0  0  0  0  0  0  0  0
   20.8898   18.0407   25.1038 H   0  0  0  0  0  0  0  0  0  0  0  0
  1  2  1  0  0  0  0
  1  3  1  0  0  0  0
  1  4  1  0  0  0  0
  4  5  1  0  0  0  0
  4  6  1  0  0  0  0
  4  7  1  0  0  0  0
  7  8  1  0  0  0  0
  7  9  1  0  0  0  0
  7 10  1  0  0  0  0
 10 11  1  0  0  0  0
 10 12  1  0  0  0  0
 10 13  1  0  0  0  0
 13 14  1  0  0  0  0
 13 15  1  0  0  0  0
 15 16  1  0  0  0  0
 15 17  1  0  0  0  0
  1 18  1  0  0  0  0
 15 18  1  0  0  0  0
 18 19  1  0  0  0  0
 18 20  1  0  0  0  0
 13 21  1  0  0  0  0
 21 22  1  0  0  0  0
M  END
> <VConfSearch Rank>
12

> <Conf_Id>
95

> <Delta U+W>
-2.289

> <U+W>
4.134

> <U>
6.373

> <W>
-2.240

> <W(PB)>
-4.254

> <W(SA)>
2.015

> <Valence>
12.093

> <Coulomb>
-8.058

> <VdW>
2.339

> <VdW6>
-9.683

> <VdW12>
12.022

> <Bond>
0.268

> <Angle>
3.005

> <Pdih>
8.820

> <Idih>
0.000

> <Tether>
0.000

$$$$
VeraChem MOL file


 22 22  0  0  0  0  0  0  0  0999 V2000     
   20.5015   20.8967   24.0621 C   0  0  0  0  0  0  0  0  0  0  0  0
   21.3460   20.8610   24.7639 H   0  0  0  0  0  0  0  0  0  0  0  0
   19.9821   21.8423   24.2689 H   0  0  0  0  0  0  0  0  0  0  0  0
   19.5505   19.7208   24.3891 C   0  0  0  0  0  0  0  0  0  0  0  0
   20.1409   18.8481   24.6996 H   0  0  0  0  0  0  0  0  0  0  0  0
   18.9553   20.0004   25.2691 H   0  0  0  0  0  0  0  0  0  0  0  0
   18.5935   19.3140   23.2444 C   0  0  0  0  0  0  0  0  0  0  0  0
   18.2418   20.1970   22.6935 H   0  0  0  0  0  0  0  0  0  0  0  0
   17.7003   18.8588   23.6932 H   0  0  0  0  0  0  0  0  0  0  0  0
   19.2209   18.2739   22.2823 C   0  0  0  0  0  0  0  0  0  0  0  0
   19.6383   17.4466   22.8708 H   0  0  0  0  0  0  0  0  0  0  0  0
   18.4206   17.8267   21.6786 H   0  0  0  0  0  0  0  0  0  0  0  0
   20.3150   18.8020   21.3264 C   0  0  0  0  0  0  0  0  0  0  0  0
   20.7703   17.9227   20.8481 H   0  0  0  0  0  0  0  0  0  0  0  0
   21.4600   19.5914   22.0091 C   0  0  0  0  0  0  0  0  0  0  0  0
   21.9404   18.9681   22.7742 H   0  0  0  0  0  0  0  0  0  0  0  0
   22.2276   19.7743   21.2461 H   0  0  0  0  0  0  0  0  0  0  0  0
   21.0484   20.9581   22.6159 C   0  0  0  0  0  0  0  0  0  0  0  0
   21.9229   21.6224   22.6139 H   0  0  0  0  0  0  0  0  0  0  0  0
   20.3110   21.4479   21.9663 H   0  0  0  0  0  0  0  0  0  0  0  0
   19.7109   19.5966   20.3102 O   0  0  0  0  0  0  0  0  0  0  0  0
   18.9881   19.0599   19.9258 H   0  0  0  0  0  0  0  0  0  0  0  0
  1  2  1  0  0  0  0
  1  3  1  0  0  0  0
  1  4  1  0  0  0  0
  4  5  1  0  0  0  0
  4  6  1  0  0  0  0
  4  7  1  0  0  0  0
  7  8  1  0  0  0  0
  7  9  1  0  0  0  0
  7 10  1  0  0  0  0
 10 11  1  0  0  0  0
 10 12  1  0  0  0  0
 10 13  1  0  0  0  0
 13 14  1  0  0  0  0
 13 15  1  0  0  0  0
 15 16  1  0  0  0  0
 15 17  1  0  0  0  0
  1 18  1  0  0  0  0
 15 18  1  0  0  0  0
 18 19  1  0  0  0  0
 18 20  1  0  0  0  0
 13 21  1  0  0  0  0
 21 22  1  0  0  0  0
M  END
> <VConfSearch Rank>
13

> <Conf_Id>
41

> <Delta U+W>
-2.114

> <U+W>
4.310

> <U>
6.598

> <W>
-2.289

> <W(PB)>
-4.294

> <W(SA)>
2.005

> <Valence>
12.082

> <Coulomb>
-7.801

> <VdW>
2.317

> <VdW6>
-9.658

> <VdW12>
11.975

> <Bond>
0.267

> <Angle>
3.051

> <Pdih>
8.764

> <Idih>
0.000

> <Tether>
0.000

$$$$
VeraChem MOL file


 22 22  0  0  0  0  0  0  0  0999 V2000     
   20.0985   18.7750   21.2339 C   0  0  0  0  0  0  0  0  0  0  0  0
   20.3220   18.4163   20.2200 H   0  0  0  0  0  0  0  0  0  0  0  0
   19.4310   18.0278   21.6847 H   0  0  0  0  0  0  0  0  0  0  0  0
   19.3851   20.1396   21.1073 C   0  0  0  0  0  0  0  0  0  0  0  0
   20.0876   20.8865   20.7132 H   0  0  0  0  0  0  0  0  0  0  0  0
   18.5880   20.0505   20.3568 H   0  0  0  0  0  0  0  0  0  0  0  0
   18.7584   20.6630   22.4182 C   0  0  0  0  0  0  0  0  0  0  0  0
   17.9102   20.0242   22.6983 H   0  0  0  0  0  0  0  0  0  0  0  0
   18.3269   21.6524   22.2155 H   0  0  0  0  0  0  0  0  0  0  0  0
   19.7414   20.7945   23.6130 C   0  0  0  0  0  0  0  0  0  0  0  0
   20.6269   21.3680   23.3109 H   0  0  0  0  0  0  0  0  0  0  0  0
   19.2469   21.3978   24.3851 H   0  0  0  0  0  0  0  0  0  0  0  0
   20.1783   19.4658   24.2822 C   0  0  0  0  0  0  0  0  0  0  0  0
   20.5895   19.7292   25.2675 H   0  0  0  0  0  0  0  0  0  0  0  0
   21.2910   18.6725   23.5489 C   0  0  0  0  0  0  0  0  0  0  0  0
   22.2538   18.9420   24.0021 H   0  0  0  0  0  0  0  0  0  0  0  0
   21.1640   17.6021   23.7575 H   0  0  0  0  0  0  0  0  0  0  0  0
   21.4262   18.8661   22.0181 C   0  0  0  0  0  0  0  0  0  0  0  0
   21.9186   19.8246   21.8054 H   0  0  0  0  0  0  0  0  0  0  0  0
   22.1104   18.0938   21.6413 H   0  0  0  0  0  0  0  0  0  0  0  0
   19.0502   18.6220   24.4977 O   0  0  0  0  0  0  0  0  0  0  0  0
   19.3791   17.8218   24.9554 H   0  0  0  0  0  0  0  0  0  0  0  0
  1  2  1  0  0  0  0
  1  3  1  0  0  0  0
  1  4  1  0  0  0  0
  4  5  1  0  0  0  0
  4  6  1  0  0  0  0
  4  7  1  0  0  0  0
  7  8  1  0  0  0  0
  7  9  1  0  0  0  0
  7 10  1  0  0  0  0
 10 11  1  0  0  0  0
 10 12  1  0  0  0  0
 10 13  1  0  0  0  0
 13 14  1  0  0  0  0
 13 15  1  0  0  0  0
 15 16  1  0  0  0  0
 15 17  1  0  0  0  0
  1 18  1  0  0  0  0
 15 18  1  0  0  0  0
 18 19  1  0  0  0  0
 18 20  1  0  0  0  0
 13 21  1  0  0  0  0
 21 22  1  0  0  0  0
M  END
> <VConfSearch Rank>
14

> <Conf_Id>
104

> <Delta U+W>
-1.172

> <U+W>
5.252

> <U>
7.482

> <W>
-2.230

> <W(PB)>
-4.220

> <W(SA)>
1.990

> <Valence>
12.309

> <Coulomb>
-7.084

> <VdW>
2.258

> <VdW6>
-9.770

> <VdW12>
12.028

> <Bond>
0.284

> <Angle>
3.491

> <Pdih>
8.535

> <Idih>
0.000

> <Tether>
0.000

$$$$
VeraChem MOL file


 22 22  0  0  0  0  0  0  0  0999 V2000     
   18.7047   20.4301   23.0549 C   0  0  0  0  0  0  0  0  0  0  0  0
   18.9902   21.2954   22.4416 H   0  0  0  0  0  0  0  0  0  0  0  0
   17.7487   20.6961   23.5263 H   0  0  0  0  0  0  0  0  0  0  0  0
   19.7356   20.1872   24.1809 C   0  0  0  0  0  0  0  0  0  0  0  0
   19.5389   20.8982   24.9952 H   0  0  0  0  0  0  0  0  0  0  0  0
   19.5656   19.1963   24.6220 H   0  0  0  0  0  0  0  0  0  0  0  0
   21.2232   20.3366   23.7731 C   0  0  0  0  0  0  0  0  0  0  0  0
   21.8339   19.7323   24.4580 H   0  0  0  0  0  0  0  0  0  0  0  0
   21.5293   21.3766   23.9507 H   0  0  0  0  0  0  0  0  0  0  0  0
   21.5985   19.9824   22.3085 C   0  0  0  0  0  0  0  0  0  0  0  0
   21.3222   20.8197   21.6547 H   0  0  0  0  0  0  0  0  0  0  0  0
   22.6925   19.9170   22.2455 H   0  0  0  0  0  0  0  0  0  0  0  0
   21.0049   18.6798   21.7246 C   0  0  0  0  0  0  0  0  0  0  0  0
   21.6472   18.3751   20.8858 H   0  0  0  0  0  0  0  0  0  0  0  0
   19.5828   18.8726   21.1512 C   0  0  0  0  0  0  0  0  0  0  0  0
   19.6117   19.6739   20.4014 H   0  0  0  0  0  0  0  0  0  0  0  0
   19.3096   17.9628   20.6009 H   0  0  0  0  0  0  0  0  0  0  0  0
   18.4612   19.1820   22.1734 C   0  0  0  0  0  0  0  0  0  0  0  0
   17.5280   19.3320   21.6136 H   0  0  0  0  0  0  0  0  0  0  0  0
   18.2852   18.3046   22.8102 H   0  0  0  0  0  0  0  0  0  0  0  0
   21.0031   17.6507   22.7018 O   0  0  0  0  0  0  0  0  0  0  0  0
   20.4867   18.0261   23.4426 H   0  0  0  0  0  0  0  0  0  0  0  0
  1  2  1  0  0  0  0
  1  3  1  0  0  0  0
  1  4  1  0  0  0  0
  4  5  1  0  0  0  0
  4  6  1  0  0  0  0
  4  7  1  0  0  0  0
  7  8  1  0  0  0  0
  7  9  1  0  0  0  0
  7 10  1  0  0  0  0
 10 11  1  0  0  0  0
 10 12  1  0  0  0  0
 10 13  1  0  0  0  0
 13 14  1  0  0  0  0
 13 15  1  0  0  0  0
 15 16  1  0  0  0  0
 15 17  1  0  0  0  0
  1 18  1  0  0  0  0
 15 18  1  0  0  0  0
 18 19  1  0  0  0  0
 18 20  1  0  0  0  0
 13 21  1  0  0  0  0
 21 22  1  0  0  0  0
M  END
> <VConfSearch Rank>
15

> <Conf_Id>
99

> <Delta U+W>
-3.852

> <U+W>
2.572

> <U>
3.922

> <W>
-1.350

> <W(PB)>
-3.345

> <W(SA)>
1.995

> <Valence>
12.571

> <Coulomb>
-10.581

> <VdW>
1.932

> <VdW6>
-10.483

> <VdW12>
12.415

> <Bond>
0.268

> <Angle>
3.728

> <Pdih>
8.575

> <Idih>
0.000

> <Tether>
0.000

$$$$
VeraChem MOL file


 22 22  0  0  0  0  0  0  0  0999 V2000     
   19.1931   18.4571   21.8326 C   0  0  0  0  0  0  0  0  0  0  0  0
   19.1174   17.5388   21.2341 H   0  0  0  0  0  0  0  0  0  0  0  0
   18.1578   18.8041   21.9508 H   0  0  0  0  0  0  0  0  0  0  0  0
   20.0163   19.4941   21.0137 C   0  0  0  0  0  0  0  0  0  0  0  0
   20.2968   19.0247   20.0607 H   0  0  0  0  0  0  0  0  0  0  0  0
   19.3814   20.3454   20.7339 H   0  0  0  0  0  0  0  0  0  0  0  0
   21.3139   20.0130   21.6844 C   0  0  0  0  0  0  0  0  0  0  0  0
   21.8897   20.5749   20.9364 H   0  0  0  0  0  0  0  0  0  0  0  0
   21.9585   19.1656   21.9488 H   0  0  0  0  0  0  0  0  0  0  0  0
   21.1203   20.9312   22.9231 C   0  0  0  0  0  0  0  0  0  0  0  0
   22.0420   20.9028   23.5184 H   0  0  0  0  0  0  0  0  0  0  0  0
   21.0317   21.9690   22.5750 H   0  0  0  0  0  0  0  0  0  0  0  0
   19.9215   20.6503   23.8623 C   0  0  0  0  0  0  0  0  0  0  0  0
   20.0856   21.2408   24.7750 H   0  0  0  0  0  0  0  0  0  0  0  0
   19.7291   19.1794   24.3066 C   0  0  0  0  0  0  0  0  0  0  0  0
   20.4862   18.9440   25.0656 H   0  0  0  0  0  0  0  0  0  0  0  0
   18.7651   19.1150   24.8287 H   0  0  0  0  0  0  0  0  0  0  0  0
   19.7724   18.0716   23.2177 C   0  0  0  0  0  0  0  0  0  0  0  0
   20.8006   17.7073   23.1007 H   0  0  0  0  0  0  0  0  0  0  0  0
   19.2143   17.2051   23.5977 H   0  0  0  0  0  0  0  0  0  0  0  0
   18.7263   21.1272   23.2643 O   0  0  0  0  0  0  0  0  0  0  0  0
   18.6258   20.5745   22.4635 H   0  0  0  0  0  0  0  0  0  0  0  0
  1  2  1  0  0  0  0
  1  3  1  0  0  0  0
  1  4  1  0  0  0  0
  4  5  1  0  0  0  0
  4  6  1  0  0  0  0
  4  7  1  0  0  0  0
  7  8  1  0  0  0  0
  7  9  1  0  0  0  0
  7 10  1  0  0  0  0
 10 11  1  0  0  0  0
 10 12  1  0  0  0  0
 10 13  1  0  0  0  0
 13 14  1  0  0  0  0
 13 15  1  0  0  0  0
 15 16  1  0  0  0  0
 15 17  1  0  0  0  0
  1 18  1  0  0  0  0
 15 18  1  0  0  0  0
 18 19  1  0  0  0  0
 18 20  1  0  0  0  0
 13 21  1  0  0  0  0
 21 22  1  0  0  0  0
M  END
> <VConfSearch Rank>
16

> <Conf_Id>
98

> <Delta U+W>
0.930

> <U+W>
7.353

> <U>
8.455

> <W>
-1.102

> <W(PB)>
-3.101

> <W(SA)>
2.000

> <Valence>
15.601

> <Coulomb>
-10.573

> <VdW>
3.427

> <VdW6>
-11.360

> <VdW12>
14.787

> <Bond>
0.471

> <Angle>
5.445

> <Pdih>
9.685

> <Idih>
0.000

> <Tether>
0.000

$$$$
VeraChem MOL file


 22 22  0  0  0  0  0  0  0  0999 V2000     
   21.1380   18.3745   23.2471 C   0  0  0  0  0  0  0  0  0  0  0  0
   20.8124   17.7186   22.4295 H   0  0  0  0  0  0  0  0  0  0  0  0
   21.9392   17.8207   23.7550 H   0  0  0  0  0  0  0  0  0  0  0  0
   19.9723   18.5834   24.2470 C   0  0  0  0  0  0  0  0  0  0  0  0
   19.6803   17.5944   24.6257 H   0  0  0  0  0  0  0  0  0  0  0  0
   20.3334   19.1419   25.1213 H   0  0  0  0  0  0  0  0  0  0  0  0
   18.7022   19.2802   23.6850 C   0  0  0  0  0  0  0  0  0  0  0  0
   18.6688   20.3261   24.0167 H   0  0  0  0  0  0  0  0  0  0  0  0
   17.8220   18.8099   24.1441 H   0  0  0  0  0  0  0  0  0  0  0  0
   18.5489   19.2218   22.1420 C   0  0  0  0  0  0  0  0  0  0  0  0
   18.6469   18.1808   21.8098 H   0  0  0  0  0  0  0  0  0  0  0  0
   17.5183   19.5030   21.8869 H   0  0  0  0  0  0  0  0  0  0  0  0
   19.5311   20.1132   21.3268 C   0  0  0  0  0  0  0  0  0  0  0  0
   19.9343   19.5070   20.5027 H   0  0  0  0  0  0  0  0  0  0  0  0
   20.7234   20.7061   22.1186 C   0  0  0  0  0  0  0  0  0  0  0  0
   21.2670   21.4064   21.4713 H   0  0  0  0  0  0  0  0  0  0  0  0
   20.3481   21.3173   22.9482 H   0  0  0  0  0  0  0  0  0  0  0  0
   21.7419   19.6715   22.6593 C   0  0  0  0  0  0  0  0  0  0  0  0
   22.4286   19.3918   21.8487 H   0  0  0  0  0  0  0  0  0  0  0  0
   22.3613   20.1595   23.4240 H   0  0  0  0  0  0  0  0  0  0  0  0
   18.7999   21.2034   20.7774 O   0  0  0  0  0  0  0  0  0  0  0  0
   19.4270   21.7143   20.2243 H   0  0  0  0  0  0  0  0  0  0  0  0
  1  2  1  0  0  0  0
  1  3  1  0  0  0  0
  1  4  1  0  0  0  0
  4  5  1  0  0  0  0
  4  6  1  0  0  0  0
  4  7  1  0  0  0  0
  7  8  1  0  0  0  0
  7  9  1  0  0  0  0
  7 10  1  0  0  0  0
 10 11  1  0  0  0  0
 10 12  1  0  0  0  0
 10 13  1  0  0  0  0
 13 14  1  0  0  0  0
 13 15  1  0  0  0  0
 15 16  1  0  0  0  0
 15 17  1  0  0  0  0
  1 18  1  0  0  0  0
 15 18  1  0  0  0  0
 18 19  1  0  0  0  0
 18 20  1  0  0  0  0
 13 21  1  0  0  0  0
 21 22  1  0  0  0  0
M  END
> <VConfSearch Rank>
17

> <Conf_Id>
141

> <Delta U+W>
0.000

> <U+W>
6.423

> <U>
8.781

> <W>
-2.358

> <W(PB)>
-4.373

> <W(SA)>
2.015

> <Valence>
13.328

> <Coulomb>
-8.387

> <VdW>
3.840

> <VdW6>
-9.744

> <VdW12>
13.584

> <Bond>
0.436

> <Angle>
3.478

> <Pdih>
9.415

> <Idih>
0.000

> <Tether>
0.000

$$$$
VeraChem MOL file


 22 22  0  0  0  0  0  0  0  0999 V2000     
   21.6457   19.5095   22.1211 C   0  0  0  0  0  0  0  0  0  0  0  0
   21.5022   18.4330   21.9560 H   0  0  0  0  0  0  0  0  0  0  0  0
   22.6682   19.7341   21.7881 H   0  0  0  0  0  0  0  0  0  0  0  0
   21.5557   19.8553   23.6271 C   0  0  0  0  0  0  0  0  0  0  0  0
   22.4277   19.4244   24.1378 H   0  0  0  0  0  0  0  0  0  0  0  0
   21.6414   20.9429   23.7567 H   0  0  0  0  0  0  0  0  0  0  0  0
   20.2808   19.3539   24.3437 C   0  0  0  0  0  0  0  0  0  0  0  0
   20.3047   19.7182   25.3798 H   0  0  0  0  0  0  0  0  0  0  0  0
   20.3074   18.2577   24.4110 H   0  0  0  0  0  0  0  0  0  0  0  0
   18.9476   19.7985   23.6941 C   0  0  0  0  0  0  0  0  0  0  0  0
   18.1422   19.5833   24.4086 H   0  0  0  0  0  0  0  0  0  0  0  0
   18.9359   20.8852   23.5389 H   0  0  0  0  0  0  0  0  0  0  0  0
   18.6538   19.0594   22.3694 C   0  0  0  0  0  0  0  0  0  0  0  0
   19.0670   18.0432   22.4433 H   0  0  0  0  0  0  0  0  0  0  0  0
   19.2482   19.7343   21.1122 C   0  0  0  0  0  0  0  0  0  0  0  0
   19.2617   18.9858   20.3095 H   0  0  0  0  0  0  0  0  0  0  0  0
   18.5706   20.5285   20.7714 H   0  0  0  0  0  0  0  0  0  0  0  0
   20.6683   20.3371   21.2541 C   0  0  0  0  0  0  0  0  0  0  0  0
   21.0919   20.4487   20.2467 H   0  0  0  0  0  0  0  0  0  0  0  0
   20.5961   21.3565   21.6571 H   0  0  0  0  0  0  0  0  0  0  0  0
   17.2447   18.9701   22.1971 O   0  0  0  0  0  0  0  0  0  0  0  0
   16.8971   18.4730   22.9669 H   0  0  0  0  0  0  0  0  0  0  0  0
  1  2  1  0  0  0  0
  1  3  1  0  0  0  0
  1  4  1  0  0  0  0
  4  5  1  0  0  0  0
  4  6  1  0  0  0  0
  4  7  1  0  0  0  0
  7  8  1  0  0  0  0
  7  9  1  0  0  0  0
  7 10  1  0  0  0  0
 10 11  1  0  0  0  0
 10 12  1  0  0  0  0
 10 13  1  0  0  0  0
 13 14  1  0  0  0  0
 13 15  1  0  0  0  0
 15 16  1  0  0  0  0
 15 17  1  0  0  0  0
  1 18  1  0  0  0  0
 15 18  1  0  0  0  0
 18 19  1  0  0  0  0
 18 20  1  0  0  0  0
 13 21  1  0  0  0  0
 21 22  1  0  0  0  0
M  END
> <VConfSearch Rank>
18

> <Conf_Id>
144

> <Delta U+W>
-3.291

> <U+W>
3.132

> <U>
5.411

> <W>
-2.279

> <W(PB)>
-4.300

> <W(SA)>
2.021

> <Valence>
11.909

> <Coulomb>
-8.733

> <VdW>
2.236

> <VdW6>
-8.936

> <VdW12>
11.172

> <Bond>
0.223

> <Angle>
2.457

> <Pdih>
9.228

> <Idih>
0.000

> <Tether>
0.000

$$$$
VeraChem MOL file


 22 22  0  0  0  0  0  0  0  0999 V2000     
   21.1700   18.7249   21.7566 C   0  0  0  0  0  0  0  0  0  0  0  0
   22.0870   18.2034   21.4501 H   0  0  0  0  0  0  0  0  0  0  0  0
   20.5354   18.7755   20.8614 H   0  0  0  0  0  0  0  0  0  0  0  0
   21.5629   20.1425   22.2344 C   0  0  0  0  0  0  0  0  0  0  0  0
   21.9045   20.0951   23.2774 H   0  0  0  0  0  0  0  0  0  0  0  0
   22.4328   20.4838   21.6567 H   0  0  0  0  0  0  0  0  0  0  0  0
   20.4520   21.2119   22.0998 C   0  0  0  0  0  0  0  0  0  0  0  0
   20.4569   21.6052   21.0740 H   0  0  0  0  0  0  0  0  0  0  0  0
   20.7142   22.0610   22.7458 H   0  0  0  0  0  0  0  0  0  0  0  0
   19.0115   20.7514   22.4326 C   0  0  0  0  0  0  0  0  0  0  0  0
   18.4067   21.6490   22.6196 H   0  0  0  0  0  0  0  0  0  0  0  0
   18.5715   20.2753   21.5468 H   0  0  0  0  0  0  0  0  0  0  0  0
   18.8965   19.7919   23.6383 C   0  0  0  0  0  0  0  0  0  0  0  0
   19.6551   20.0525   24.3900 H   0  0  0  0  0  0  0  0  0  0  0  0
   19.0564   18.3090   23.2328 C   0  0  0  0  0  0  0  0  0  0  0  0
   18.7172   17.6782   24.0654 H   0  0  0  0  0  0  0  0  0  0  0  0
   18.3881   18.0852   22.3911 H   0  0  0  0  0  0  0  0  0  0  0  0
   20.4967   17.8802   22.8648 C   0  0  0  0  0  0  0  0  0  0  0  0
   21.1231   17.8964   23.7672 H   0  0  0  0  0  0  0  0  0  0  0  0
   20.4696   16.8317   22.5382 H   0  0  0  0  0  0  0  0  0  0  0  0
   17.6065   19.9501   24.2138 O   0  0  0  0  0  0  0  0  0  0  0  0
   16.9614   19.7115   23.5166 H   0  0  0  0  0  0  0  0  0  0  0  0
  1  2  1  0  0  0  0
  1  3  1  0  0  0  0
  1  4  1  0  0  0  0
  4  5  1  0  0  0  0
  4  6  1  0  0  0  0
  4  7  1  0  0  0  0
  7  8  1  0  0  0  0
  7  9  1  0  0  0  0
  7 10  1  0  0  0  0
 10 11  1  0  0  0  0
 10 12  1  0  0  0  0
 10 13  1  0  0  0  0
 13 14  1  0  0  0  0
 13 15  1  0  0  0  0
 15 16  1  0  0  0  0
 15 17  1  0  0  0  0
  1 18  1  0  0  0  0
 15 18  1  0  0  0  0
 18 19  1  0  0  0  0
 18 20  1  0  0  0  0
 13 21  1  0  0  0  0
 21 22  1  0  0  0  0
M  END
> <VConfSearch Rank>
19

> <Conf_Id>
76

> <Delta U+W>
-3.175

> <U+W>
3.248

> <U>
5.336

> <W>
-2.088

> <W(PB)>
-4.098

> <W(SA)>
2.010

> <Valence>
12.390

> <Coulomb>
-9.270

> <VdW>
2.216

> <VdW6>
-8.967

> <VdW12>
11.183

> <Bond>
0.218

> <Angle>
2.426

> <Pdih>
9.745

> <Idih>
0.000

> <Tether>
0.000

$$$$
VeraChem MOL file


 22 22  0  0  0  0  0  0  0  0999 V2000     
   20.6973   19.7659   24.4424 C   0  0  0  0  0  0  0  0  0  0  0  0
   21.6540   20.2044   24.7577 H   0  0  0  0  0  0  0  0  0  0  0  0
   20.1487   19.5495   25.3692 H   0  0  0  0  0  0  0  0  0  0  0  0
   20.9928   18.4341   23.7119 C   0  0  0  0  0  0  0  0  0  0  0  0
   21.9169   18.5341   23.1266 H   0  0  0  0  0  0  0  0  0  0  0  0
   21.2080   17.6706   24.4720 H   0  0  0  0  0  0  0  0  0  0  0  0
   19.8561   17.9242   22.7957 C   0  0  0  0  0  0  0  0  0  0  0  0
   18.8718   18.1299   23.2380 H   0  0  0  0  0  0  0  0  0  0  0  0
   19.9372   16.8309   22.7279 H   0  0  0  0  0  0  0  0  0  0  0  0
   19.9439   18.4939   21.3570 C   0  0  0  0  0  0  0  0  0  0  0  0
   20.9583   18.3379   20.9684 H   0  0  0  0  0  0  0  0  0  0  0  0
   19.2850   17.9044   20.7061 H   0  0  0  0  0  0  0  0  0  0  0  0
   19.5702   19.9843   21.1887 C   0  0  0  0  0  0  0  0  0  0  0  0
   19.8574   20.2696   20.1663 H   0  0  0  0  0  0  0  0  0  0  0  0
   20.2924   20.9580   22.1535 C   0  0  0  0  0  0  0  0  0  0  0  0
   21.3795   20.8525   22.0436 H   0  0  0  0  0  0  0  0  0  0  0  0
   20.0599   21.9800   21.8276 H   0  0  0  0  0  0  0  0  0  0  0  0
   19.8946   20.8224   23.6463 C   0  0  0  0  0  0  0  0  0  0  0  0
   20.0349   21.7939   24.1392 H   0  0  0  0  0  0  0  0  0  0  0  0
   18.8218   20.6053   23.7322 H   0  0  0  0  0  0  0  0  0  0  0  0
   18.1590   20.1314   21.3103 O   0  0  0  0  0  0  0  0  0  0  0  0
   17.9723   21.0905   21.2498 H   0  0  0  0  0  0  0  0  0  0  0  0
  1  2  1  0  0  0  0
  1  3  1  0  0  0  0
  1  4  1  0  0  0  0
  4  5  1  0  0  0  0
  4  6  1  0  0  0  0
  4  7  1  0  0  0  0
  7  8  1  0  0  0  0
  7  9  1  0  0  0  0
  7 10  1  0  0  0  0
 10 11  1  0  0  0  0
 10 12  1  0  0  0  0
 10 13  1  0  0  0  0
 13 14  1  0  0  0  0
 13 15  1  0  0  0  0
 15 16  1  0  0  0  0
 15 17  1  0  0  0  0
  1 18  1  0  0  0  0
 15 18  1  0  0  0  0
 18 19  1  0  0  0  0
 18 20  1  0  0  0  0
 13 21  1  0  0  0  0
 21 22  1  0  0  0  0
M  END
> <VConfSearch Rank>
20

> <Conf_Id>
95

> <Delta U+W>
-2.289

> <U+W>
4.134

> <U>
6.373

> <W>
-2.240

> <W(PB)>
-4.254

> <W(SA)>
2.015

> <Valence>
12.093

> <Coulomb>
-8.058

> <VdW>
2.339

> <VdW6>
-9.683

> <VdW12>
12.022

> <Bond>
0.268

> <Angle>
3.005

> <Pdih>
8.820

> <Idih>
0.000

> <Tether>
0.000

$$$$
VeraChem MOL file


 22 22  0  0  0  0  0  0  0  0999 V2000     
   21.3196   18.9804   21.4388 C   0  0  0  0  0  0  0  0  0  0  0  0
   22.4018   19.1676   21.4126 H   0  0  0  0  0  0  0  0  0  0  0  0
   21.1142   18.3021   20.5995 H   0  0  0  0  0  0  0  0  0  0  0  0
   20.5902   20.3220   21.1888 C   0  0  0  0  0  0  0  0  0  0  0  0
   21.1514   21.1378   21.6641 H   0  0  0  0  0  0  0  0  0  0  0  0
   20.6249   20.5313   20.1109 H   0  0  0  0  0  0  0  0  0  0  0  0
   19.1184   20.3658   21.6616 C   0  0  0  0  0  0  0  0  0  0  0  0
   18.6199   19.4029   21.4851 H   0  0  0  0  0  0  0  0  0  0  0  0
   18.5851   21.1027   21.0460 H   0  0  0  0  0  0  0  0  0  0  0  0
   18.9794   20.7987   23.1430 C   0  0  0  0  0  0  0  0  0  0  0  0
   19.5591   21.7168   23.3045 H   0  0  0  0  0  0  0  0  0  0  0  0
   17.9344   21.0777   23.3305 H   0  0  0  0  0  0  0  0  0  0  0  0
   19.4022   19.7543   24.2014 C   0  0  0  0  0  0  0  0  0  0  0  0
   19.4104   20.2711   25.1719 H   0  0  0  0  0  0  0  0  0  0  0  0
   20.8126   19.1462   23.9986 C   0  0  0  0  0  0  0  0  0  0  0  0
   21.5656   19.9444   23.9802 H   0  0  0  0  0  0  0  0  0  0  0  0
   21.0367   18.5432   24.8881 H   0  0  0  0  0  0  0  0  0  0  0  0
   20.9665   18.2389   22.7502 C   0  0  0  0  0  0  0  0  0  0  0  0
   21.7579   17.5026   22.9449 H   0  0  0  0  0  0  0  0  0  0  0  0
   20.0522   17.6492   22.6024 H   0  0  0  0  0  0  0  0  0  0  0  0
   18.4262   18.7184   24.2587 O   0  0  0  0  0  0  0  0  0  0  0  0
   17.5576   19.1559   24.3697 H   0  0  0  0  0  0  0  0  0  0  0  0
  1  2  1  0  0  0  0
  1  3  1  0  0  0  0
  1  4  1  0  0  0  0
  4  5  1  0  0  0  0
  4  6  1  0  0  0  0
  4  7  1  0  0  0  0
  7  8  1  0  0  0  0
  7  9  1  0  0  0  0
  7 10  1  0  0  0  0
 10 11  1  0  0  0  0
 10 12  1  0  0  0  0
 10 13  1  0  0  0  0
 13 14  1  0  0  0  0
 13 15  1  0  0  0  0
 15 16  1  0  0  0  0
 15 17  1  0  0  0  0
  1 18  1  0  0  0  0
 15 18  1  0  0  0  0
 18 19  1  0  0  0  0
 18 20  1  0  0  0  0
 13 21  1  0  0  0  0
 21 22  1  0  0  0  0
M  END
> <VConfSearch Rank>
21

> <Conf_Id>
41

> <Delta U+W>
-2.114

> <U+W>
4.310

> <U>
6.598

> <W>
-2.289

> <W(PB)>
-4.294

> <W(SA)>
2.005

> <Valence>
12.082

> <Coulomb>
-7.801

> <VdW>
2.317

> <VdW6>
-9.658

> <VdW12>
11.975

> <Bond>
0.267

> <Angle>
3.051

> <Pdih>
8.764

> <Idih>
0.000

> <Tether>
0.000

$$$$
VeraChem MOL file


 22 22  0  0  0  0  0  0  0  0999 V2000     
   21.7512   19.5703   22.7510 C   0  0  0  0  0  0  0  0  0  0  0  0
   22.8114   19.8336   22.8662 H   0  0  0  0  0  0  0  0  0  0  0  0
   21.7096   18.4733   22.7046 H   0  0  0  0  0  0  0  0  0  0  0  0
   21.2495   20.1925   21.4286 C   0  0  0  0  0  0  0  0  0  0  0  0
   21.2401   21.2872   21.5179 H   0  0  0  0  0  0  0  0  0  0  0  0
   21.9732   19.9612   20.6353 H   0  0  0  0  0  0  0  0  0  0  0  0
   19.8583   19.7008   20.9724 C   0  0  0  0  0  0  0  0  0  0  0  0
   19.9221   18.6444   20.6795 H   0  0  0  0  0  0  0  0  0  0  0  0
   19.5912   20.2442   20.0561 H   0  0  0  0  0  0  0  0  0  0  0  0
   18.7171   19.8971   22.0069 C   0  0  0  0  0  0  0  0  0  0  0  0
   18.7022   20.9365   22.3586 H   0  0  0  0  0  0  0  0  0  0  0  0
   17.7644   19.7481   21.4826 H   0  0  0  0  0  0  0  0  0  0  0  0
   18.7267   18.9313   23.2198 C   0  0  0  0  0  0  0  0  0  0  0  0
   17.7225   18.9753   23.6658 H   0  0  0  0  0  0  0  0  0  0  0  0
   19.7196   19.2839   24.3578 C   0  0  0  0  0  0  0  0  0  0  0  0
   19.1731   19.8557   25.1190 H   0  0  0  0  0  0  0  0  0  0  0  0
   20.0305   18.3587   24.8606 H   0  0  0  0  0  0  0  0  0  0  0  0
   20.9856   20.0949   23.9857 C   0  0  0  0  0  0  0  0  0  0  0  0
   20.7222   21.1510   23.8387 H   0  0  0  0  0  0  0  0  0  0  0  0
   21.6615   20.0779   24.8514 H   0  0  0  0  0  0  0  0  0  0  0  0
   18.9481   17.5914   22.7881 O   0  0  0  0  0  0  0  0  0  0  0  0
   18.9039   17.0263   23.5860 H   0  0  0  0  0  0  0  0  0  0  0  0
  1  2  1  0  0  0  0
  1  3  1  0  0  0  0
  1  4  1  0  0  0  0
  4  5  1  0  0  0  0
  4  6  1  0  0  0  0
  4  7  1  0  0  0  0
  7  8  1  0  0  0  0
  7  9  1  0  0  0  0
  7 10  1  0  0  0  0
 10 11  1  0  0  0  0
 10 12  1  0  0  0  0
 10 13  1  0  0  0  0
 13 14  1  0  0  0  0
 13 15  1  0  0  0  0
 15 16  1  0  0  0  0
 15 17  1  0  0  0  0
  1 18  1  0  0  0  0
 15 18  1  0  0  0  0
 18 19  1  0  0  0  0
 18 20  1  0  0  0  0
 13 21  1  0  0  0  0
 21 22  1  0  0  0  0
M  END
> <VConfSearch Rank>
22

> <Conf_Id>
104

> <Delta U+W>
-1.172

> <U+W>
5.252

> <U>
7.482

> <W>
-2.230

> <W(PB)>
-4.220

> <W(SA)>
1.990

> <Valence>
12.309

> <Coulomb>
-7.084

> <VdW>
2.258

> <VdW6>
-9.770

> <VdW12>
12.028

> <Bond>
0.284

> <Angle>
3.491

> <Pdih>
8.535

> <Idih>
0.000

> <Tether>
0.000

$$$$
VeraChem MOL file


 22 22  0  0  0  0  0  0  0  0999 V2000     
   19.0770   20.8731   22.9511 C   0  0  0  0  0  0  0  0  0  0  0  0
   18.6210   20.4099   23.8365 H   0  0  0  0  0  0  0  0  0  0  0  0
   18.5749   21.8421   22.8247 H   0  0  0  0  0  0  0  0  0  0  0  0
   18.8036   20.0303   21.6844 C   0  0  0  0  0  0  0  0  0  0  0  0
   17.7830   20.2414   21.3366 H   0  0  0  0  0  0  0  0  0  0  0  0
   19.4571   20.3731   20.8715 H   0  0  0  0  0  0  0  0  0  0  0  0
   18.9351   18.4959   21.8575 C   0  0  0  0  0  0  0  0  0  0  0  0
   19.1694   18.0543   20.8790 H   0  0  0  0  0  0  0  0  0  0  0  0
   17.9510   18.0915   22.1312 H   0  0  0  0  0  0  0  0  0  0  0  0
   19.9593   17.9833   22.9061 C   0  0  0  0  0  0  0  0  0  0  0  0
   19.5210   18.0713   23.9086 H   0  0  0  0  0  0  0  0  0  0  0  0
   20.0976   16.9061   22.7462 H   0  0  0  0  0  0  0  0  0  0  0  0
   21.3538   18.6507   22.9135 C   0  0  0  0  0  0  0  0  0  0  0  0
   22.0497   17.9487   23.3949 H   0  0  0  0  0  0  0  0  0  0  0  0
   21.3906   19.9549   23.7418 C   0  0  0  0  0  0  0  0  0  0  0  0
   21.0437   19.7347   24.7598 H   0  0  0  0  0  0  0  0  0  0  0  0
   22.4388   20.2638   23.8472 H   0  0  0  0  0  0  0  0  0  0  0  0
   20.5811   21.1515   23.1837 C   0  0  0  0  0  0  0  0  0  0  0  0
   20.6717   21.9812   23.8980 H   0  0  0  0  0  0  0  0  0  0  0  0
   21.0417   21.5114   22.2538 H   0  0  0  0  0  0  0  0  0  0  0  0
   21.7941   18.9006   21.5877 O   0  0  0  0  0  0  0  0  0  0  0  0
   21.0885   19.4578   21.2030 H   0  0  0  0  0  0  0  0  0  0  0  0
  1  2  1  0  0  0  0
  1  3  1  0  0  0  0
  1  4  1  0  0  0  0
  4  5  1  0  0  0  0
  4  6  1  0  0  0  0
  4  7  1  0  0  0  0
  7  8  1  0  0  0  0
  7  9  1  0  0  0  0
  7 10  1  0  0  0  0
 10 11  1  0  0  0  0
 10 12  1  0  0  0  0
 10 13  1  0  0  0  0
 13 14  1  0  0  0  0
 13 15  1  0  0  0  0
 15 16  1  0  0  0  0
 15 17  1  0  0  0  0
  1 18  1  0  0  0  0
 15 18  1  0  0  0  0
 18 19  1  0  0  0  0
 18 20  1  0  0  0  0
 13 21  1  0  0  0  0
 21 22  1  0  0  0  0
M  END
> <VConfSearch Rank>
23

> <Conf_Id>
99

> <Delta U+W>
-3.852

> <U+W>
2.572

> <U>
3.922

> <W>
-1.350

> <W(PB)>
-3.345

> <W(SA)>
1.995

> <Valence>
12.571

> <Coulomb>
-10.581

> <VdW>
1.932

> <VdW6>
-10.483

> <VdW12>
12.415

> <Bond>
0.268

> <Angle>
3.728

> <Pdih>
8.575

> <Idih>
0.000

> <Tether>
0.000

$$$$
VeraChem MOL file


 22 22  0  0  0  0  0  0  0  0999 V2000     
   21.2590   19.3633   23.8281 C   0  0  0  0  0  0  0  0  0  0  0  0
   22.2919   19.4649   24.1886 H   0  0  0  0  0  0  0  0  0  0  0  0
   20.7204   18.8693   24.6478 H   0  0  0  0  0  0  0  0  0  0  0  0
   21.2803   18.4458   22.5705 C   0  0  0  0  0  0  0  0  0  0  0  0
   22.3224   18.1501   22.3868 H   0  0  0  0  0  0  0  0  0  0  0  0
   20.7519   17.5058   22.7788 H   0  0  0  0  0  0  0  0  0  0  0  0
   20.7297   19.0719   21.2637 C   0  0  0  0  0  0  0  0  0  0  0  0
   20.9788   18.4041   20.4279 H   0  0  0  0  0  0  0  0  0  0  0  0
   21.2682   20.0020   21.0433 H   0  0  0  0  0  0  0  0  0  0  0  0
   19.1980   19.3308   21.2250 C   0  0  0  0  0  0  0  0  0  0  0  0
   18.9993   20.1003   20.4679 H   0  0  0  0  0  0  0  0  0  0  0  0
   18.7023   18.4239   20.8538 H   0  0  0  0  0  0  0  0  0  0  0  0
   18.4918   19.7433   22.5401 C   0  0  0  0  0  0  0  0  0  0  0  0
   17.4869   20.0953   22.2661 H   0  0  0  0  0  0  0  0  0  0  0  0
   19.1617   20.8807   23.3499 C   0  0  0  0  0  0  0  0  0  0  0  0
   18.9585   21.8334   22.8441 H   0  0  0  0  0  0  0  0  0  0  0  0
   18.6434   20.9487   24.3156 H   0  0  0  0  0  0  0  0  0  0  0  0
   20.6896   20.7897   23.6183 C   0  0  0  0  0  0  0  0  0  0  0  0
   21.2379   21.2924   22.8119 H   0  0  0  0  0  0  0  0  0  0  0  0
   20.9093   21.3856   24.5146 H   0  0  0  0  0  0  0  0  0  0  0  0
   18.3249   18.6036   23.3685 O   0  0  0  0  0  0  0  0  0  0  0  0
   19.2396   18.3311   23.5830 H   0  0  0  0  0  0  0  0  0  0  0  0
  1  2  1  0  0  0  0
  1  3  1  0  0  0  0
  1  4  1  0  0  0  0
  4  5  1  0  0  0  0
  4  6  1  0  0  0  0
  4  7  1  0  0  0  0
  7  8  1  0  0  0  0
  7  9  1  0  0  0  0
  7 10  1  0  0  0  0
 10 11  1  0  0  0  0
 10 12  1  0  0  0  0
 10 13  1  0  0  0  0
 13 14  1  0  0  0  0
 13 15  1  0  0  0  0
 15 16  1  0  0  0  0
 15 17  1  0  0  0  0
  1 18  1  0  0  0  0
 15 18  1  0  0  0  0
 18 19  1  0  0  0  0
 18 20  1  0  0  0  0
 13 21  1  0  0  0  0
 21 22  1  0  0  0  0
M  END
> <VConfSearch Rank>
24

> <Conf_Id>
98

> <Delta U+W>
0.930

> <U+W>
7.353

> <U>
8.455

> <W>
-1.102

> <W(PB)>
-3.101

> <W(SA)>
2.000

> <Valence>
15.601

> <Coulomb>
-10.573

> <VdW>
3.427

> <VdW6>
-11.360

> <VdW12>
14.787

> <Bond>
0.471

> <Angle>
5.445

> <Pdih>
9.685

> <Idih>
0.000

> <Tether>
0.000

$$$$
VeraChem MOL file


 22 22  0  0  0  0  0  0  0  0999 V2000     
   19.1633   18.4008   21.6836 C   0  0  0  0  0  0  0  0  0  0  0  0
   18.2755   19.0323   21.8177 H   0  0  0  0  0  0  0  0  0  0  0  0
   18.8409   17.5950   21.0102 H   0  0  0  0  0  0  0  0  0  0  0  0
   19.5713   17.7753   23.0416 C   0  0  0  0  0  0  0  0  0  0  0  0
   18.7178   17.1860   23.4039 H   0  0  0  0  0  0  0  0  0  0  0  0
   20.3852   17.0545   22.8847 H   0  0  0  0  0  0  0  0  0  0  0  0
   19.9807   18.7720   24.1613 C   0  0  0  0  0  0  0  0  0  0  0  0
   21.0727   18.7848   24.2729 H   0  0  0  0  0  0  0  0  0  0  0  0
   19.6034   18.3862   25.1180 H   0  0  0  0  0  0  0  0  0  0  0  0
   19.4632   20.2224   23.9714 C   0  0  0  0  0  0  0  0  0  0  0  0
   18.3803   20.1982   23.7967 H   0  0  0  0  0  0  0  0  0  0  0  0
   19.5831   20.7587   24.9224 H   0  0  0  0  0  0  0  0  0  0  0  0
   20.1454   21.0452   22.8393 C   0  0  0  0  0  0  0  0  0  0  0  0
   19.3553   21.5461   22.2613 H   0  0  0  0  0  0  0  0  0  0  0  0
   21.0275   20.2386   21.8536 C   0  0  0  0  0  0  0  0  0  0  0  0
   21.5451   20.9389   21.1852 H   0  0  0  0  0  0  0  0  0  0  0  0
   21.8260   19.7284   22.4056 H   0  0  0  0  0  0  0  0  0  0  0  0
   20.2717   19.2126   20.9728 C   0  0  0  0  0  0  0  0  0  0  0  0
   19.8172   19.7402   20.1232 H   0  0  0  0  0  0  0  0  0  0  0  0
   21.0048   18.5188   20.5394 H   0  0  0  0  0  0  0  0  0  0  0  0
   20.9723   22.0364   23.4383 O   0  0  0  0  0  0  0  0  0  0  0  0
   21.3427   22.5745   22.7080 H   0  0  0  0  0  0  0  0  0  0  0  0
  1  2  1  0  0  0  0
  1  3  1  0  0  0  0
  1  4  1  0  0  0  0
  4  5  1  0  0  0  0
  4  6  1  0  0  0  0
  4  7  1  0  0  0  0
  7  8  1  0  0  0  0
  7  9  1  0  0  0  0
  7 10  1  0  0  0  0
 10 11  1  0  0  0  0
 10 12  1  0  0  0  0
 10 13  1  0  0  0  0
 13 14  1  0  0  0  0
 13 15  1  0  0  0  0
 15 16  1  0  0  0  0
 15 17  1  0  0  0  0
  1 18  1  0  0  0  0
 15 18  1  0  0  0  0
 18 19  1  0  0  0  0
 18 20  1  0  0  0  0
 13 21  1  0  0  0  0
 21 22  1  0  0  0  0
M  END
> <VConfSearch Rank>
25

> <Conf_Id>
141

> <Delta U+W>
0.000

> <U+W>
6.423

> <U>
8.781

> <W>
-2.358

> <W(PB)>
-4.373

> <W(SA)>
2.015

> <Valence>
13.328

> <Coulomb>
-8.387

> <VdW>
3.840

> <VdW6>
-9.744

> <VdW12>
13.584

> <Bond>
0.436

> <Angle>
3.478

> <Pdih>
9.415

> <Idih>
0.000

> <Tether>
0.000

$$$$
VeraChem MOL file


 22 22  0  0  0  0  0  0  0  0999 V2000     
   21.4881   18.7294   22.5125 C   0  0  0  0  0  0  0  0  0  0  0  0
   21.0460   17.9219   23.1117 H   0  0  0  0  0  0  0  0  0  0  0  0
   22.4897   18.3811   22.2254 H   0  0  0  0  0  0  0  0  0  0  0  0
   21.6623   20.0143   23.3577 C   0  0  0  0  0  0  0  0  0  0  0  0
   22.4397   19.8338   24.1127 H   0  0  0  0  0  0  0  0  0  0  0  0
   22.0479   20.8207   22.7192 H   0  0  0  0  0  0  0  0  0  0  0  0
   20.3883   20.5028   24.0848 C   0  0  0  0  0  0  0  0  0  0  0  0
   20.6238   21.4499   24.5892 H   0  0  0  0  0  0  0  0  0  0  0  0
   20.1297   19.7942   24.8836 H   0  0  0  0  0  0  0  0  0  0  0  0
   19.1574   20.7221   23.1716 C   0  0  0  0  0  0  0  0  0  0  0  0
   18.4088   21.2781   23.7513 H   0  0  0  0  0  0  0  0  0  0  0  0
   19.4178   21.3602   22.3173 H   0  0  0  0  0  0  0  0  0  0  0  0
   18.5315   19.3956   22.6854 C   0  0  0  0  0  0  0  0  0  0  0  0
   18.6651   18.6422   23.4750 H   0  0  0  0  0  0  0  0  0  0  0  0
   19.1396   18.8403   21.3774 C   0  0  0  0  0  0  0  0  0  0  0  0
   18.8638   17.7801   21.3078 H   0  0  0  0  0  0  0  0  0  0  0  0
   18.6639   19.3318   20.5182 H   0  0  0  0  0  0  0  0  0  0  0  0
   20.6755   18.9661   21.2180 C   0  0  0  0  0  0  0  0  0  0  0  0
   20.9981   18.2427   20.4569 H   0  0  0  0  0  0  0  0  0  0  0  0
   20.9225   19.9546   20.8074 H   0  0  0  0  0  0  0  0  0  0  0  0
   17.1393   19.5961   22.4739 O   0  0  0  0  0  0  0  0  0  0  0  0
   16.7603   19.8746   23.3338 H   0  0  0  0  0  0  0  0  0  0  0  0
  1  2  1  0  0  0  0
  1  3  1  0  0  0  0
  1  4  1  0  0  0  0
  4  5  1  0  0  0  0
  4  6  1  0  0  0  0
  4  7  1  0  0  0  0
  7  8  1  0  0  0  0
  7  9  1  0  0  0  0
  7 10  1  0  0  0  0
 10 11  1  0  0  0  0
 10 12  1  0  0  0  0
 10 13  1  0  0  0  0
 13 14  1  0  0  0  0
 13 15  1  0  0  0  0
 15 16  1  0  0  0  0
 15 17  1  0  0  0  0
  1 18  1  0  0  0  0
 15 18  1  0  0  0  0
 18 19  1  0  0  0  0
 18 20  1  0  0  0  0
 13 21  1  0  0  0  0
 21 22  1  0  0  0  0
M  END
> <VConfSearch Rank>
26

> <Conf_Id>
144

> <Delta U+W>
-3.291

> <U+W>
3.132

> <U>
5.411

> <W>
-2.279

> <W(PB)>
-4.300

> <W(SA)>
2.021

> <Valence>
11.909

> <Coulomb>
-8.733

> <VdW>
2.236

> <VdW6>
-8.936

> <VdW12>
11.172

> <Bond>
0.223

> <Angle>
2.457

> <Pdih>
9.228

> <Idih>
0.000

> <Tether>
0.000

$$$$
VeraChem MOL file


 22 22  0  0  0  0  0  0  0  0999 V2000     
   19.1891   19.3978   21.0992 C   0  0  0  0  0  0  0  0  0  0  0  0
   18.9898   19.2353   20.0311 H   0  0  0  0  0  0  0  0  0  0  0  0
   18.2195   19.6375   21.5563 H   0  0  0  0  0  0  0  0  0  0  0  0
   20.1681   20.5883   21.2273 C   0  0  0  0  0  0  0  0  0  0  0  0
   21.1964   20.2343   21.0722 H   0  0  0  0  0  0  0  0  0  0  0  0
   19.9757   21.2962   20.4096 H   0  0  0  0  0  0  0  0  0  0  0  0
   20.0829   21.3674   22.5621 C   0  0  0  0  0  0  0  0  0  0  0  0
   19.2689   22.1022   22.4957 H   0  0  0  0  0  0  0  0  0  0  0  0
   21.0051   21.9536   22.6757 H   0  0  0  0  0  0  0  0  0  0  0  0
   19.8640   20.5195   23.8394 C   0  0  0  0  0  0  0  0  0  0  0  0
   20.1530   21.1331   24.7034 H   0  0  0  0  0  0  0  0  0  0  0  0
   18.7913   20.3211   23.9608 H   0  0  0  0  0  0  0  0  0  0  0  0
   20.6381   19.1827   23.8745 C   0  0  0  0  0  0  0  0  0  0  0  0
   21.6057   19.3040   23.3671 H   0  0  0  0  0  0  0  0  0  0  0  0
   19.8508   18.0248   23.2197 C   0  0  0  0  0  0  0  0  0  0  0  0
   20.3266   17.0748   23.4976 H   0  0  0  0  0  0  0  0  0  0  0  0
   18.8362   17.9895   23.6374 H   0  0  0  0  0  0  0  0  0  0  0  0
   19.7622   18.0811   21.6761 C   0  0  0  0  0  0  0  0  0  0  0  0
   20.7569   17.8974   21.2475 H   0  0  0  0  0  0  0  0  0  0  0  0
   19.1322   17.2471   21.3380 H   0  0  0  0  0  0  0  0  0  0  0  0
   20.8722   18.8375   25.2332 O   0  0  0  0  0  0  0  0  0  0  0  0
   19.9911   18.7403   25.6497 H   0  0  0  0  0  0  0  0  0  0  0  0
  1  2  1  0  0  0  0
  1  3  1  0  0  0  0
  1  4  1  0  0  0  0
  4  5  1  0  0  0  0
  4  6  1  0  0  0  0
  4  7  1  0  0  0  0
  7  8  1  0  0  0  0
  7  9  1  0  0  0  0
  7 10  1  0  0  0  0
 10 11  1  0  0  0  0
 10 12  1  0  0  0  0
 10 13  1  0  0  0  0
 13 14  1  0  0  0  0
 13 15  1  0  0  0  0
 15 16  1  0  0  0  0
 15 17  1  0  0  0  0
  1 18  1  0  0  0  0
 15 18  1  0  0  0  0
 18 19  1  0  0  0  0
 18 20  1  0  0  0  0
 13 21  1  0  0  0  0
 21 22  1  0  0  0  0
M  END
> <VConfSearch Rank>
27

> <Conf_Id>
76

> <Delta U+W>
-3.175

> <U+W>
3.248

> <U>
5.336

> <W>
-2.088

> <W(PB)>
-4.098

> <W(SA)>
2.010

> <Valence>
12.390

> <Coulomb>
-9.270

> <VdW>
2.216

> <VdW6>
-8.967

> <VdW12>
11.183

> <Bond>
0.218

> <Angle>
2.426

> <Pdih>
9.745

> <Idih>
0.000

> <Tether>
0.000

$$$$
VeraChem MOL file


 22 22  0  0  0  0  0  0  0  0999 V2000     
   19.9962   21.0532   23.8170 C   0  0  0  0  0  0  0  0  0  0  0  0
   19.8684   21.0563   24.9081 H   0  0  0  0  0  0  0  0  0  0  0  0
   20.1554   22.1023   23.5325 H   0  0  0  0  0  0  0  0  0  0  0  0
   18.6786   20.5545   23.1768 C   0  0  0  0  0  0  0  0  0  0  0  0
   18.2374   19.7717   23.8085 H   0  0  0  0  0  0  0  0  0  0  0  0
   17.9588   21.3842   23.1916 H   0  0  0  0  0  0  0  0  0  0  0  0
   18.8123   20.0315   21.7276 C   0  0  0  0  0  0  0  0  0  0  0  0
   19.5361   20.6303   21.1582 H   0  0  0  0  0  0  0  0  0  0  0  0
   17.8444   20.1655   21.2260 H   0  0  0  0  0  0  0  0  0  0  0  0
   19.1720   18.5253   21.6641 C   0  0  0  0  0  0  0  0  0  0  0  0
   18.4766   17.9612   22.2987 H   0  0  0  0  0  0  0  0  0  0  0  0
   18.9957   18.1659   20.6417 H   0  0  0  0  0  0  0  0  0  0  0  0
   20.6193   18.1515   22.0573 C   0  0  0  0  0  0  0  0  0  0  0  0
   20.6536   17.0552   22.1354 H   0  0  0  0  0  0  0  0  0  0  0  0
   21.1012   18.7204   23.4155 C   0  0  0  0  0  0  0  0  0  0  0  0
   20.4236   18.3965   24.2160 H   0  0  0  0  0  0  0  0  0  0  0  0
   22.0703   18.2579   23.6430 H   0  0  0  0  0  0  0  0  0  0  0  0
   21.2763   20.2607   23.4599 C   0  0  0  0  0  0  0  0  0  0  0  0
   22.0445   20.5079   24.2050 H   0  0  0  0  0  0  0  0  0  0  0  0
   21.6733   20.6226   22.5023 H   0  0  0  0  0  0  0  0  0  0  0  0
   21.5066   18.5499   21.0171 O   0  0  0  0  0  0  0  0  0  0  0  0
   22.4115   18.3432   21.3280 H   0  0  0  0  0  0  0  0  0  0  0  0
  1  2  1  0  0  0  0
  1  3  1  0  0  0  0
  1  4  1  0  0  0  0
  4  5  1  0  0  0  0
  4  6  1  0  0  0  0
  4  7  1  0  0  0  0
  7  8  1  0  0  0  0
  7  9  1  0  0  0  0
  7 10  1  0  0  0  0
 10 11  1  0  0  0  0
 10 12  1  0  0  0  0
 10 13  1  0  0  0  0
 13 14  1  0  0  0  0
 13 15  1  0  0  0  0
 15 16  1  0  0  0  0
 15 17  1  0  0  0  0
  1 18  1  0  0  0  0
 15 18  1  0  0  0  0
 18 19  1  0  0  0  0
 18 20  1  0  0  0  0
 13 21  1  0  0  0  0
 21 22  1  0  0  0  0
M  END
> <VConfSearch Rank>
28

> <Conf_Id>
95

> <Delta U+W>
-2.289

> <U+W>
4.134

> <U>
6.373

> <W>
-2.240

> <W(PB)>
-4.254

> <W(SA)>
2.015

> <Valence>
12.093

> <Coulomb>
-8.058

> <VdW>
2.339

> <VdW6>
-9.683

> <VdW12>
12.022

> <Bond>
0.268

> <Angle>
3.005

> <Pdih>
8.820

> <Idih>
0.000

> <Tether>
0.000

$$$$
VeraChem MOL file


 22 22  0  0  0  0  0  0  0  0999 V2000     
   18.5213   19.9202   21.5901 C   0  0  0  0  0  0  0  0  0  0  0  0
   17.9594   20.8527   21.4438 H   0  0  0  0  0  0  0  0  0  0  0  0
   18.0516   19.1819   20.9259 H   0  0  0  0  0  0  0  0  0  0  0  0
   18.3320   19.4661   23.0572 C   0  0  0  0  0  0  0  0  0  0  0  0
   18.2945   20.3479   23.7111 H   0  0  0  0  0  0  0  0  0  0  0  0
   17.3428   18.9959   23.1418 H   0  0  0  0  0  0  0  0  0  0  0  0
   19.4027   18.4812   23.5817 C   0  0  0  0  0  0  0  0  0  0  0  0
   19.7018   17.7717   22.7982 H   0  0  0  0  0  0  0  0  0  0  0  0
   18.9491   17.8796   24.3810 H   0  0  0  0  0  0  0  0  0  0  0  0
   20.6380   19.2030   24.1771 C   0  0  0  0  0  0  0  0  0  0  0  0
   20.2991   19.9635   24.8925 H   0  0  0  0  0  0  0  0  0  0  0  0
   21.2139   18.4812   24.7707 H   0  0  0  0  0  0  0  0  0  0  0  0
   21.5932   19.8704   23.1613 C   0  0  0  0  0  0  0  0  0  0  0  0
   22.3032   20.4756   23.7432 H   0  0  0  0  0  0  0  0  0  0  0  0
   20.9125   20.8212   22.1449 C   0  0  0  0  0  0  0  0  0  0  0  0
   20.3673   21.6108   22.6776 H   0  0  0  0  0  0  0  0  0  0  0  0
   21.7121   21.3301   21.5912 H   0  0  0  0  0  0  0  0  0  0  0  0
   19.9797   20.1293   21.1170 C   0  0  0  0  0  0  0  0  0  0  0  0
   19.9536   20.7349   20.2011 H   0  0  0  0  0  0  0  0  0  0  0  0
   20.4082   19.1647   20.8143 H   0  0  0  0  0  0  0  0  0  0  0  0
   22.3288   18.8635   22.4728 O   0  0  0  0  0  0  0  0  0  0  0  0
   22.7215   18.2843   23.1572 H   0  0  0  0  0  0  0  0  0  0  0  0
  1  2  1  0  0  0  0
  1  3  1  0  0  0  0
  1  4  1  0  0  0  0
  4  5  1  0  0  0  0
  4  6  1  0  0  0  0
  4  7  1  0  0  0  0
  7  8  1  0  0  0  0
  7  9  1  0  0  0  0
  7 10  1  0  0  0  0
 10 11  1  0  0  0  0
 10 12  1  0  0  0  0
 10 13  1  0  0  0  0
 13 14  1  0  0  0  0
 13 15  1  0  0  0  0
 15 16  1  0  0  0  0
 15 17  1  0  0  0  0
  1 18  1  0  0  0  0
 15 18  1  0  0  0  0
 18 19  1  0  0  0  0
 18 20  1  0  0  0  0
 13 21  1  0  0  0  0
 21 22  1  0  0  0  0
M  END
> <VConfSearch Rank>
29

> <Conf_Id>
41

> <Delta U+W>
-2.114

> <U+W>
4.310

> <U>
6.598

> <W>
-2.289

> <W(PB)>
-4.294

> <W(SA)>
2.005

> <Valence>
12.082

> <Coulomb>
-7.801

> <VdW>
2.317

> <VdW6>
-9.658

> <VdW12>
11.975

> <Bond>
0.267

> <Angle>
3.051

> <Pdih>
8.764

> <Idih>
0.000

> <Tether>
0.000

$$$$
VeraChem MOL file


 22 22  0  0  0  0  0  0  0  0999 V2000     
   20.8697   19.9772   24.1183 C   0  0  0  0  0  0  0  0  0  0  0  0
   21.3348   20.5090   24.9594 H   0  0  0  0  0  0  0  0  0  0  0  0
   20.6854   18.9515   24.4665 H   0  0  0  0  0  0  0  0  0  0  0  0
   21.8712   19.9833   22.9418 C   0  0  0  0  0  0  0  0  0  0  0  0
   21.9937   21.0091   22.5686 H   0  0  0  0  0  0  0  0  0  0  0  0
   22.8574   19.6804   23.3190 H   0  0  0  0  0  0  0  0  0  0  0  0
   21.4943   19.0503   21.7701 C   0  0  0  0  0  0  0  0  0  0  0  0
   21.5794   18.0045   22.0938 H   0  0  0  0  0  0  0  0  0  0  0  0
   22.2482   19.1761   20.9815 H   0  0  0  0  0  0  0  0  0  0  0  0
   20.0929   19.3022   21.1506 C   0  0  0  0  0  0  0  0  0  0  0  0
   19.9781   20.3638   20.8976 H   0  0  0  0  0  0  0  0  0  0  0  0
   20.0506   18.7637   20.1951 H   0  0  0  0  0  0  0  0  0  0  0  0
   18.8821   18.8287   21.9955 C   0  0  0  0  0  0  0  0  0  0  0  0
   18.0217   18.7779   21.3125 H   0  0  0  0  0  0  0  0  0  0  0  0
   18.4574   19.7673   23.1547 C   0  0  0  0  0  0  0  0  0  0  0  0
   17.6479   20.4123   22.7890 H   0  0  0  0  0  0  0  0  0  0  0  0
   18.0071   19.1658   23.9553 H   0  0  0  0  0  0  0  0  0  0  0  0
   19.5405   20.6849   23.7742 C   0  0  0  0  0  0  0  0  0  0  0  0
   19.7342   21.5360   23.1075 H   0  0  0  0  0  0  0  0  0  0  0  0
   19.1259   21.1199   24.6938 H   0  0  0  0  0  0  0  0  0  0  0  0
   19.1097   17.5156   22.5003 O   0  0  0  0  0  0  0  0  0  0  0  0
   18.3017   17.2562   22.9879 H   0  0  0  0  0  0  0  0  0  0  0  0
  1  2  1  0  0  0  0
  1  3  1  0  0  0  0
  1  4  1  0  0  0  0
  4  5  1  0  0  0  0
  4  6  1  0  0  0  0
  4  7  1  0  0  0  0
  7  8  1  0  0  0  0
  7  9  1  0  0  0  0
  7 10  1  0  0  0  0
 10 11  1  0  0  0  0
 10 12  1  0  0  0  0
 10 13  1  0  0  0  0
 13 14  1  0  0  0  0
 13 15  1  0  0  0  0
 15 16  1  0  0  0  0
 15 17  1  0  0  0  0
  1 18  1  0  0  0  0
 15 18  1  0  0  0  0
 18 19  1  0  0  0  0
 18 20  1  0  0  0  0
 13 21  1  0  0  0  0
 21 22  1  0  0  0  0
M  END
> <VConfSearch Rank>
30

> <Conf_Id>
104

> <Delta U+W>
-1.172

> <U+W>
5.252

> <U>
7.482

> <W>
-2.230

> <W(PB)>
-4.220

> <W(SA)>
1.990

> <Valence>
12.309

> <Coulomb>
-7.084

> <VdW>
2.258

> <VdW6>
-9.770

> <VdW12>
12.028

> <Bond>
0.284

> <Angle>
3.491

> <Pdih>
8.535

> <Idih>
0.000

> <Tether>
0.000

$$$$
VeraChem MOL file


 22 22  0  0  0  0  0  0  0  0999 V2000     
   19.8861   17.9631   22.4813 C   0  0  0  0  0  0  0  0  0  0  0  0
   18.9958   17.9221   23.1233 H   0  0  0  0  0  0  0  0  0  0  0  0
   20.0813   16.9280   22.1691 H   0  0  0  0  0  0  0  0  0  0  0  0
   21.1169   18.4576   23.2751 C   0  0  0  0  0  0  0  0  0  0  0  0
   21.5135   17.6194   23.8645 H   0  0  0  0  0  0  0  0  0  0  0  0
   21.9211   18.7174   22.5743 H   0  0  0  0  0  0  0  0  0  0  0  0
   20.8598   19.6375   24.2463 C   0  0  0  0  0  0  0  0  0  0  0  0
   21.8046   20.1788   24.3938 H   0  0  0  0  0  0  0  0  0  0  0  0
   20.6030   19.2263   25.2322 H   0  0  0  0  0  0  0  0  0  0  0  0
   19.7482   20.6497   23.8578 C   0  0  0  0  0  0  0  0  0  0  0  0
   18.7688   20.2185   24.1026 H   0  0  0  0  0  0  0  0  0  0  0  0
   19.8468   21.5278   24.5091 H   0  0  0  0  0  0  0  0  0  0  0  0
   19.7225   21.1395   22.3917 C   0  0  0  0  0  0  0  0  0  0  0  0
   19.1794   22.0954   22.3758 H   0  0  0  0  0  0  0  0  0  0  0  0
   18.9619   20.1779   21.4509 C   0  0  0  0  0  0  0  0  0  0  0  0
   17.9477   20.0302   21.8442 H   0  0  0  0  0  0  0  0  0  0  0  0
   18.8331   20.6779   20.4820 H   0  0  0  0  0  0  0  0  0  0  0  0
   19.6114   18.7935   21.2050 C   0  0  0  0  0  0  0  0  0  0  0  0
   18.9380   18.2166   20.5566 H   0  0  0  0  0  0  0  0  0  0  0  0
   20.5406   18.9145   20.6320 H   0  0  0  0  0  0  0  0  0  0  0  0
   21.0419   21.3504   21.9133 O   0  0  0  0  0  0  0  0  0  0  0  0
   21.4812   20.4854   22.0360 H   0  0  0  0  0  0  0  0  0  0  0  0
  1  2  1  0  0  0  0
  1  3  1  0  0  0  0
  1  4  1  0  0  0  0
  4  5  1  0  0  0  0
  4  6  1  0  0  0  0
  4  7  1  0  0  0  0
  7  8  1  0  0  0  0
  7  9  1  0  0  0  0
  7 10  1  0  0  0  0
 10 11  1  0  0  0  0
 10 12  1  0  0  0  0
 10 13  1  0  0  0  0
 13 14  1  0  0  0  0
 13 15  1  0  0  0  0
 15 16  1  0  0  0  0
 15 17  1  0  0  0  0
  1 18  1  0  0  0  0
 15 18  1  0  0  0  0
 18 19  1  0  0  0  0
 18 20  1  0  0  0  0
 13 21  1  0  0  0  0
 21 22  1  0  0  0  0
M  END
> <VConfSearch Rank>
31

> <Conf_Id>
99

> <Delta U+W>
-3.852

> <U+W>
2.572

> <U>
3.922

> <W>
-1.350

> <W(PB)>
-3.345

> <W(SA)>
1.995

> <Valence>
12.571

> <Coulomb>
-10.581

> <VdW>
1.932

> <VdW6>
-10.483

> <VdW12>
12.415

> <Bond>
0.268

> <Angle>
3.728

> <Pdih>
8.575

> <Idih>
0.000

> <Tether>
0.000

$$$$
VeraChem MOL file


 22 22  0  0  0  0  0  0  0  0999 V2000     
   18.5753   19.9023   22.0173 C   0  0  0  0  0  0  0  0  0  0  0  0
   17.7935   19.7288   21.2651 H   0  0  0  0  0  0  0  0  0  0  0  0
   18.1542   20.6578   22.6941 H   0  0  0  0  0  0  0  0  0  0  0  0
   19.8241   20.4748   21.2847 C   0  0  0  0  0  0  0  0  0  0  0  0
   19.5827   20.5492   20.2154 H   0  0  0  0  0  0  0  0  0  0  0  0
   20.0101   21.5085   21.6055 H   0  0  0  0  0  0  0  0  0  0  0  0
   21.1281   19.6474   21.4180 C   0  0  0  0  0  0  0  0  0  0  0  0
   21.8656   20.0463   20.7083 H   0  0  0  0  0  0  0  0  0  0  0  0
   20.9499   18.6186   21.0812 H   0  0  0  0  0  0  0  0  0  0  0  0
   21.7841   19.6319   22.8267 C   0  0  0  0  0  0  0  0  0  0  0  0
   22.4257   18.7441   22.8965 H   0  0  0  0  0  0  0  0  0  0  0  0
   22.4663   20.4893   22.9009 H   0  0  0  0  0  0  0  0  0  0  0  0
   20.8568   19.6651   24.0665 C   0  0  0  0  0  0  0  0  0  0  0  0
   21.4803   19.4206   24.9383 H   0  0  0  0  0  0  0  0  0  0  0  0
   19.6743   18.6651   24.0645 C   0  0  0  0  0  0  0  0  0  0  0  0
   20.0665   17.6631   24.2809 H   0  0  0  0  0  0  0  0  0  0  0  0
   19.0290   18.9144   24.9174 H   0  0  0  0  0  0  0  0  0  0  0  0
   18.7901   18.5757   22.7898 C   0  0  0  0  0  0  0  0  0  0  0  0
   19.1938   17.8136   22.1118 H   0  0  0  0  0  0  0  0  0  0  0  0
   17.8075   18.1862   23.0892 H   0  0  0  0  0  0  0  0  0  0  0  0
   20.3660   20.9824   24.2588 O   0  0  0  0  0  0  0  0  0  0  0  0
   19.8221   21.1505   23.4633 H   0  0  0  0  0  0  0  0  0  0  0  0
  1  2  1  0  0  0  0
  1  3  1  0  0  0  0
  1  4  1  0  0  0  0
  4  5  1  0  0  0  0
  4  6  1  0  0  0  0
  4  7  1  0  0  0  0
  7  8  1  0  0  0  0
  7  9  1  0  0  0  0
  7 10  1  0  0  0  0
 10 11  1  0  0  0  0
 10 12  1  0  0  0  0
 10 13  1  0  0  0  0
 13 14  1  0  0  0  0
 13 15  1  0  0  0  0
 15 16  1  0  0  0  0
 15 17  1  0  0  0  0
  1 18  1  0  0  0  0
 15 18  1  0  0  0  0
 18 19  1  0  0  0  0
 18 20  1  0  0  0  0
 13 21  1  0  0  0  0
 21 22  1  0  0  0  0
M  END
> <VConfSearch Rank>
32

> <Conf_Id>
98

> <Delta U+W>
0.930

> <U+W>
7.353

> <U>
8.455

> <W>
-1.102

> <W(PB)>
-3.101

> <W(SA)>
2.000

> <Valence>
15.601

> <Coulomb>
-10.573

> <VdW>
3.427

> <VdW6>
-11.360

> <VdW12>
14.787

> <Bond>
0.471

> <Angle>
5.445

> <Pdih>
9.685

> <Idih>
0.000

> <Tether>
0.000

$$$$
VeraChem MOL file


 22 22  0  0  0  0  0  0  0  0999 V2000     
   18.7870   18.5796   21.9244 C   0  0  0  0  0  0  0  0  0  0  0  0
   18.6855   18.0652   22.8887 H   0  0  0  0  0  0  0  0  0  0  0  0
   18.0127   18.1377   21.2826 H   0  0  0  0  0  0  0  0  0  0  0  0
   20.1748   18.2688   21.3082 C   0  0  0  0  0  0  0  0  0  0  0  0
   20.2452   17.1795   21.1848 H   0  0  0  0  0  0  0  0  0  0  0  0
   20.2289   18.6872   20.2940 H   0  0  0  0  0  0  0  0  0  0  0  0
   21.4097   18.7439   22.1231 C   0  0  0  0  0  0  0  0  0  0  0  0
   21.8351   19.6482   21.6689 H   0  0  0  0  0  0  0  0  0  0  0  0
   22.1962   17.9830   22.0278 H   0  0  0  0  0  0  0  0  0  0  0  0
   21.1441   18.9981   23.6305 C   0  0  0  0  0  0  0  0  0  0  0  0
   20.6606   18.1142   24.0649 H   0  0  0  0  0  0  0  0  0  0  0  0
   22.1124   19.0702   24.1440 H   0  0  0  0  0  0  0  0  0  0  0  0
   20.2990   20.2611   23.9687 C   0  0  0  0  0  0  0  0  0  0  0  0
   19.5396   19.9723   24.7096 H   0  0  0  0  0  0  0  0  0  0  0  0
   19.5771   20.9326   22.7736 C   0  0  0  0  0  0  0  0  0  0  0  0
   19.1214   21.8710   23.1153 H   0  0  0  0  0  0  0  0  0  0  0  0
   20.3137   21.2318   22.0183 H   0  0  0  0  0  0  0  0  0  0  0  0
   18.4681   20.0824   22.1048 C   0  0  0  0  0  0  0  0  0  0  0  0
   17.5481   20.1675   22.6990 H   0  0  0  0  0  0  0  0  0  0  0  0
   18.2357   20.5217   21.1252 H   0  0  0  0  0  0  0  0  0  0  0  0
   21.1578   21.2356   24.5501 O   0  0  0  0  0  0  0  0  0  0  0  0
   20.5926   21.9943   24.8051 H   0  0  0  0  0  0  0  0  0  0  0  0
  1  2  1  0  0  0  0
  1  3  1  0  0  0  0
  1  4  1  0  0  0  0
  4  5  1  0  0  0  0
  4  6  1  0  0  0  0
  4  7  1  0  0  0  0
  7  8  1  0  0  0  0
  7  9  1  0  0  0  0
  7 10  1  0  0  0  0
 10 11  1  0  0  0  0
 10 12  1  0  0  0  0
 10 13  1  0  0  0  0
 13 14  1  0  0  0  0
 13 15  1  0  0  0  0
 15 16  1  0  0  0  0
 15 17  1  0  0  0  0
  1 18  1  0  0  0  0
 15 18  1  0  0  0  0
 18 19  1  0  0  0  0
 18 20  1  0  0  0  0
 13 21  1  0  0  0  0
 21 22  1  0  0  0  0
M  END
> <VConfSearch Rank>
33

> <Conf_Id>
141

> <Delta U+W>
0.000

> <U+W>
6.423

> <U>
8.781

> <W>
-2.358

> <W(PB)>
-4.373

> <W(SA)>
2.015

> <Valence>
13.328

> <Coulomb>
-8.387

> <VdW>
3.840

> <VdW6>
-9.744

> <VdW12>
13.584

> <Bond>
0.436

> <Angle>
3.478

> <Pdih>
9.415

> <Idih>
0.000

> <Tether>
0.000

$$$$
VeraChem MOL file


 22 22  0  0  0  0  0  0  0  0999 V2000     
   19.5855   21.2404   23.1519 C   0  0  0  0  0  0  0  0  0  0  0  0
   19.9130   21.5942   22.1649 H   0  0  0  0  0  0  0  0  0  0  0  0
   19.2105   22.1260   23.6829 H   0  0  0  0  0  0  0  0  0  0  0  0
   20.7783   20.6773   23.9619 C   0  0  0  0  0  0  0  0  0  0  0  0
   21.4468   21.5087   24.2241 H   0  0  0  0  0  0  0  0  0  0  0  0
   20.4127   20.2759   24.9170 H   0  0  0  0  0  0  0  0  0  0  0  0
   21.6142   19.5960   23.2393 C   0  0  0  0  0  0  0  0  0  0  0  0
   22.3805   19.2323   23.9373 H   0  0  0  0  0  0  0  0  0  0  0  0
   22.1624   20.0554   22.4054 H   0  0  0  0  0  0  0  0  0  0  0  0
   20.8048   18.3833   22.7183 C   0  0  0  0  0  0  0  0  0  0  0  0
   21.5221   17.5990   22.4429 H   0  0  0  0  0  0  0  0  0  0  0  0
   20.1824   17.9608   23.5178 H   0  0  0  0  0  0  0  0  0  0  0  0
   19.9405   18.7284   21.4848 C   0  0  0  0  0  0  0  0  0  0  0  0
   20.4678   19.4946   20.8986 H   0  0  0  0  0  0  0  0  0  0  0  0
   18.5281   19.2601   21.8190 C   0  0  0  0  0  0  0  0  0  0  0  0
   18.1425   19.7621   20.9222 H   0  0  0  0  0  0  0  0  0  0  0  0
   17.8546   18.4123   22.0022 H   0  0  0  0  0  0  0  0  0  0  0  0
   18.4192   20.2334   23.0194 C   0  0  0  0  0  0  0  0  0  0  0  0
   17.4770   20.7896   22.9209 H   0  0  0  0  0  0  0  0  0  0  0  0
   18.3252   19.6587   23.9509 H   0  0  0  0  0  0  0  0  0  0  0  0
   19.7942   17.5603   20.6863 O   0  0  0  0  0  0  0  0  0  0  0  0
   20.6968   17.2837   20.4228 H   0  0  0  0  0  0  0  0  0  0  0  0
  1  2  1  0  0  0  0
  1  3  1  0  0  0  0
  1  4  1  0  0  0  0
  4  5  1  0  0  0  0
  4  6  1  0  0  0  0
  4  7  1  0  0  0  0
  7  8  1  0  0  0  0
  7  9  1  0  0  0  0
  7 10  1  0  0  0  0
 10 11  1  0  0  0  0
 10 12  1  0  0  0  0
 10 13  1  0  0  0  0
 13 14  1  0  0  0  0
 13 15  1  0  0  0  0
 15 16  1  0  0  0  0
 15 17  1  0  0  0  0
  1 18  1  0  0  0  0
 15 18  1  0  0  0  0
 18 19  1  0  0  0  0
 18 20  1  0  0  0  0
 13 21  1  0  0  0  0
 21 22  1  0  0  0  0
M  END
> <VConfSearch Rank>
34

> <Conf_Id>
144

> <Delta U+W>
-3.291

> <U+W>
3.132

> <U>
5.411

> <W>
-2.279

> <W(PB)>
-4.300

> <W(SA)>
2.021

> <Valence>
11.909

> <Coulomb>
-8.733

> <VdW>
2.236

> <VdW6>
-8.936

> <VdW12>
11.172

> <Bond>
0.223

> <Angle>
2.457

> <Pdih>
9.228

> <Idih>
0.000

> <Tether>
0.000

$$$$
VeraChem MOL file


 22 22  0  0  0  0  0  0  0  0999 V2000     
   20.1521   18.8152   21.0997 C   0  0  0  0  0  0  0  0  0  0  0  0
   20.1472   18.5919   20.0241 H   0  0  0  0  0  0  0  0  0  0  0  0
   20.6691   17.9746   21.5822 H   0  0  0  0  0  0  0  0  0  0  0  0
   18.6835   18.9057   21.5762 C   0  0  0  0  0  0  0  0  0  0  0  0
   18.2879   19.9060   21.3534 H   0  0  0  0  0  0  0  0  0  0  0  0
   18.0738   18.2109   20.9825 H   0  0  0  0  0  0  0  0  0  0  0  0
   18.4575   18.5792   23.0723 C   0  0  0  0  0  0  0  0  0  0  0  0
   18.3824   17.4899   23.1930 H   0  0  0  0  0  0  0  0  0  0  0  0
   17.4776   18.9800   23.3659 H   0  0  0  0  0  0  0  0  0  0  0  0
   19.5314   19.1006   24.0588 C   0  0  0  0  0  0  0  0  0  0  0  0
   19.0925   19.0972   25.0656 H   0  0  0  0  0  0  0  0  0  0  0  0
   20.3645   18.3868   24.0949 H   0  0  0  0  0  0  0  0  0  0  0  0
   20.0795   20.5097   23.7401 C   0  0  0  0  0  0  0  0  0  0  0  0
   19.2787   21.1276   23.3094 H   0  0  0  0  0  0  0  0  0  0  0  0
   21.2834   20.4721   22.7714 C   0  0  0  0  0  0  0  0  0  0  0  0
   21.7773   21.4529   22.7861 H   0  0  0  0  0  0  0  0  0  0  0  0
   22.0268   19.7527   23.1387 H   0  0  0  0  0  0  0  0  0  0  0  0
   20.9342   20.1352   21.3023 C   0  0  0  0  0  0  0  0  0  0  0  0
   20.3662   20.9668   20.8633 H   0  0  0  0  0  0  0  0  0  0  0  0
   21.8710   20.0784   20.7314 H   0  0  0  0  0  0  0  0  0  0  0  0
   20.5155   21.1048   24.9550 O   0  0  0  0  0  0  0  0  0  0  0  0
   21.2239   20.5275   25.3072 H   0  0  0  0  0  0  0  0  0  0  0  0
  1  2  1  0  0  0  0
  1  3  1  0  0  0  0
  1  4  1  0  0  0  0
  4  5  1  0  0  0  0
  4  6  1  0  0  0  0
  4  7  1  0  0  0  0
  7  8  1  0  0  0  0
  7  9  1  0  0  0  0
  7 10  1  0  0  0  0
 10 11  1  0  0  0  0
 10 12  1  0  0  0  0
 10 13  1  0  0  0  0
 13 14  1  0  0  0  0
 13 15  1  0  0  0  0
 15 16  1  0  0  0  0
 15 17  1  0  0  0  0
  1 18  1  0  0  0  0
 15 18  1  0  0  0  0
 18 19  1  0  0  0  0
 18 20  1  0  0  0  0
 13 21  1  0  0  0  0
 21 22  1  0  0  0  0
M  END
> <VConfSearch Rank>
35

> <Conf_Id>
76

> <Delta U+W>
-3.175

> <U+W>
3.248

> <U>
5.336

> <W>
-2.088

> <W(PB)>
-4.098

> <W(SA)>
2.010

> <Valence>
12.390

> <Coulomb>
-9.270

> <VdW>
2.216

> <VdW6>
-8.967

> <VdW12>
11.183

> <Bond>
0.218

> <Angle>
2.426

> <Pdih>
9.745

> <Idih>
0.000

> <Tether>
0.000

$$$$
VeraChem MOL file


 22 22  0  0  0  0  0  0  0  0999 V2000     
   21.9018   19.9051   22.8785 C   0  0  0  0  0  0  0  0  0  0  0  0
   22.3694   20.6884   23.4905 H   0  0  0  0  0  0  0  0  0  0  0  0
   22.7311   19.3146   22.4657 H   0  0  0  0  0  0  0  0  0  0  0  0
   21.1443   20.5879   21.7146 C   0  0  0  0  0  0  0  0  0  0  0  0
   20.6975   21.5267   22.0687 H   0  0  0  0  0  0  0  0  0  0  0  0
   21.8821   20.8818   20.9556 H   0  0  0  0  0  0  0  0  0  0  0  0
   20.0538   19.7196   21.0450 C   0  0  0  0  0  0  0  0  0  0  0  0
   20.3683   18.6686   20.9866 H   0  0  0  0  0  0  0  0  0  0  0  0
   19.9359   20.0603   20.0076 H   0  0  0  0  0  0  0  0  0  0  0  0
   18.6753   19.8445   21.7423 C   0  0  0  0  0  0  0  0  0  0  0  0
   18.4209   20.9065   21.8510 H   0  0  0  0  0  0  0  0  0  0  0  0
   17.9080   19.4240   21.0791 H   0  0  0  0  0  0  0  0  0  0  0  0
   18.5422   19.1573   23.1204 C   0  0  0  0  0  0  0  0  0  0  0  0
   17.5866   19.4909   23.5500 H   0  0  0  0  0  0  0  0  0  0  0  0
   19.6503   19.5118   24.1435 C   0  0  0  0  0  0  0  0  0  0  0  0
   19.6844   20.5987   24.2934 H   0  0  0  0  0  0  0  0  0  0  0  0
   19.3542   19.0888   25.1121 H   0  0  0  0  0  0  0  0  0  0  0  0
   21.0647   18.9802   23.7939 C   0  0  0  0  0  0  0  0  0  0  0  0
   21.6264   18.8303   24.7258 H   0  0  0  0  0  0  0  0  0  0  0  0
   20.9905   17.9850   23.3361 H   0  0  0  0  0  0  0  0  0  0  0  0
   18.4778   17.7464   22.9376 O   0  0  0  0  0  0  0  0  0  0  0  0
   18.4468   17.3505   23.8323 H   0  0  0  0  0  0  0  0  0  0  0  0
  1  2  1  0  0  0  0
  1  3  1  0  0  0  0
  1  4  1  0  0  0  0
  4  5  1  0  0  0  0
  4  6  1  0  0  0  0
  4  7  1  0  0  0  0
  7  8  1  0  0  0  0
  7  9  1  0  0  0  0
  7 10  1  0  0  0  0
 10 11  1  0  0  0  0
 10 12  1  0  0  0  0
 10 13  1  0  0  0  0
 13 14  1  0  0  0  0
 13 15  1  0  0  0  0
 15 16  1  0  0  0  0
 15 17  1  0  0  0  0
  1 18  1  0  0  0  0
 15 18  1  0  0  0  0
 18 19  1  0  0  0  0
 18 20  1  0  0  0  0
 13 21  1  0  0  0  0
 21 22  1  0  0  0  0
M  END
> <VConfSearch Rank>
36

> <Conf_Id>
95

> <Delta U+W>
-2.289

> <U+W>
4.134

> <U>
6.373

> <W>
-2.240

> <W(PB)>
-4.254

> <W(SA)>
2.015

> <Valence>
12.093

> <Coulomb>
-8.058

> <VdW>
2.339

> <VdW6>
-9.683

> <VdW12>
12.022

> <Bond>
0.268

> <Angle>
3.005

> <Pdih>
8.820

> <Idih>
0.000

> <Tether>
0.000

$$$$
VeraChem MOL file


 22 22  0  0  0  0  0  0  0  0999 V2000     
   19.5938   18.5389   24.2110 C   0  0  0  0  0  0  0  0  0  0  0  0
   20.1071   17.6363   24.5695 H   0  0  0  0  0  0  0  0  0  0  0  0
   18.7769   18.7197   24.9228 H   0  0  0  0  0  0  0  0  0  0  0  0
   18.9880   18.2312   22.8208 C   0  0  0  0  0  0  0  0  0  0  0  0
   19.6643   17.5671   22.2658 H   0  0  0  0  0  0  0  0  0  0  0  0
   18.0672   17.6516   22.9727 H   0  0  0  0  0  0  0  0  0  0  0  0
   18.6631   19.4728   21.9581 C   0  0  0  0  0  0  0  0  0  0  0  0
   18.2798   20.2939   22.5792 H   0  0  0  0  0  0  0  0  0  0  0  0
   17.8497   19.2057   21.2700 H   0  0  0  0  0  0  0  0  0  0  0  0
   19.8694   19.9397   21.1047 C   0  0  0  0  0  0  0  0  0  0  0  0
   20.2810   19.0781   20.5634 H   0  0  0  0  0  0  0  0  0  0  0  0
   19.5055   20.6247   20.3279 H   0  0  0  0  0  0  0  0  0  0  0  0
   21.0172   20.6370   21.8703 C   0  0  0  0  0  0  0  0  0  0  0  0
   21.8526   20.7423   21.1631 H   0  0  0  0  0  0  0  0  0  0  0  0
   21.5563   19.8604   23.0977 C   0  0  0  0  0  0  0  0  0  0  0  0
   21.9006   18.8650   22.7894 H   0  0  0  0  0  0  0  0  0  0  0  0
   22.4502   20.3910   23.4500 H   0  0  0  0  0  0  0  0  0  0  0  0
   20.5683   19.7384   24.2870 C   0  0  0  0  0  0  0  0  0  0  0  0
   21.1456   19.6457   25.2167 H   0  0  0  0  0  0  0  0  0  0  0  0
   19.9955   20.6692   24.3933 H   0  0  0  0  0  0  0  0  0  0  0  0
   20.5999   21.9416   22.2612 O   0  0  0  0  0  0  0  0  0  0  0  0
   20.2547   22.3796   21.4567 H   0  0  0  0  0  0  0  0  0  0  0  0
  1  2  1  0  0  0  0
  1  3  1  0  0  0  0
  1  4  1  0  0  0  0
  4  5  1  0  0  0  0
  4  6  1  0  0  0  0
  4  7  1  0  0  0  0
  7  8  1  0  0  0  0
  7  9  1  0  0  0  0
  7 10  1  0  0  0  0
 10 11  1  0  0  0  0
 10 12  1  0  0  0  0
 10 13  1  0  0  0  0
 13 14  1  0  0  0  0
 13 15  1  0  0  0  0
 15 16  1  0  0  0  0
 15 17  1  0  0  0  0
  1 18  1  0  0  0  0
 15 18  1  0  0  0  0
 18 19  1  0  0  0  0
 18 20  1  0  0  0  0
 13 21  1  0  0  0  0
 21 22  1  0  0  0  0
M  END
> <VConfSearch Rank>
37

> <Conf_Id>
41

> <Delta U+W>
-2.114

> <U+W>
4.310

> <U>
6.598

> <W>
-2.289

> <W(PB)>
-4.294

> <W(SA)>
2.005

> <Valence>
12.082

> <Coulomb>
-7.801

> <VdW>
2.317

> <VdW6>
-9.658

> <VdW12>
11.975

> <Bond>
0.267

> <Angle>
3.051

> <Pdih>
8.764

> <Idih>
0.000

> <Tether>
0.000

$$$$
VeraChem MOL file


 22 22  0  0  0  0  0  0  0  0999 V2000     
   21.7118   19.8590   22.8857 C   0  0  0  0  0  0  0  0  0  0  0  0
   22.7382   20.0072   23.2478 H   0  0  0  0  0  0  0  0  0  0  0  0
   21.7835   19.7440   21.7954 H   0  0  0  0  0  0  0  0  0  0  0  0
   20.8943   21.1185   23.2498 C   0  0  0  0  0  0  0  0  0  0  0  0
   20.7816   21.1810   24.3407 H   0  0  0  0  0  0  0  0  0  0  0  0
   21.4690   22.0070   22.9551 H   0  0  0  0  0  0  0  0  0  0  0  0
   19.5036   21.1990   22.5828 C   0  0  0  0  0  0  0  0  0  0  0  0
   19.6250   21.3505   21.5019 H   0  0  0  0  0  0  0  0  0  0  0  0
   19.0032   22.1042   22.9520 H   0  0  0  0  0  0  0  0  0  0  0  0
   18.5734   19.9843   22.8477 C   0  0  0  0  0  0  0  0  0  0  0  0
   18.5131   19.7839   23.9250 H   0  0  0  0  0  0  0  0  0  0  0  0
   17.5588   20.2702   22.5423 H   0  0  0  0  0  0  0  0  0  0  0  0
   18.9280   18.6795   22.0888 C   0  0  0  0  0  0  0  0  0  0  0  0
   18.0324   18.0421   22.1221 H   0  0  0  0  0  0  0  0  0  0  0  0
   20.0800   17.8361   22.6944 C   0  0  0  0  0  0  0  0  0  0  0  0
   19.6339   17.0629   23.3334 H   0  0  0  0  0  0  0  0  0  0  0  0
   20.5840   17.2876   21.8878 H   0  0  0  0  0  0  0  0  0  0  0  0
   21.1505   18.5748   23.5353 C   0  0  0  0  0  0  0  0  0  0  0  0
   20.7483   18.8069   24.5306 H   0  0  0  0  0  0  0  0  0  0  0  0
   21.9811   17.8772   23.7089 H   0  0  0  0  0  0  0  0  0  0  0  0
   19.2070   18.9594   20.7197 O   0  0  0  0  0  0  0  0  0  0  0  0
   19.3833   18.1001   20.2856 H   0  0  0  0  0  0  0  0  0  0  0  0
  1  2  1  0  0  0  0
  1  3  1  0  0  0  0
  1  4  1  0  0  0  0
  4  5  1  0  0  0  0
  4  6  1  0  0  0  0
  4  7  1  0  0  0  0
  7  8  1  0  0  0  0
  7  9  1  0  0  0  0
  7 10  1  0  0  0  0
 10 11  1  0  0  0  0
 10 12  1  0  0  0  0
 10 13  1  0  0  0  0
 13 14  1  0  0  0  0
 13 15  1  0  0  0  0
 15 16  1  0  0  0  0
 15 17  1  0  0  0  0
  1 18  1  0  0  0  0
 15 18  1  0  0  0  0
 18 19  1  0  0  0  0
 18 20  1  0  0  0  0
 13 21  1  0  0  0  0
 21 22  1  0  0  0  0
M  END
> <VConfSearch Rank>
38

> <Conf_Id>
104

> <Delta U+W>
-1.172

> <U+W>
5.252

> <U>
7.482

> <W>
-2.230

> <W(PB)>
-4.220

> <W(SA)>
1.990

> <Valence>
12.309

> <Coulomb>
-7.084

> <VdW>
2.258

> <VdW6>
-9.770

> <VdW12>
12.028

> <Bond>
0.284

> <Angle>
3.491

> <Pdih>
8.535

> <Idih>
0.000

> <Tether>
0.000

$$$$
VeraChem MOL file


 22 22  0  0  0  0  0  0  0  0999 V2000     
   19.9168   19.3827   24.2945 C   0  0  0  0  0  0  0  0  0  0  0  0
   20.8566   18.8195   24.3726 H   0  0  0  0  0  0  0  0  0  0  0  0
   19.4987   19.4150   25.3099 H   0  0  0  0  0  0  0  0  0  0  0  0
   18.9042   18.6444   23.3895 C   0  0  0  0  0  0  0  0  0  0  0  0
   18.4364   17.8387   23.9719 H   0  0  0  0  0  0  0  0  0  0  0  0
   18.0813   19.3248   23.1341 H   0  0  0  0  0  0  0  0  0  0  0  0
   19.4902   18.0155   22.0999 C   0  0  0  0  0  0  0  0  0  0  0  0
   18.6858   17.9348   21.3558 H   0  0  0  0  0  0  0  0  0  0  0  0
   19.7865   16.9811   22.3216 H   0  0  0  0  0  0  0  0  0  0  0  0
   20.7120   18.7239   21.4545 C   0  0  0  0  0  0  0  0  0  0  0  0
   21.6185   18.4552   22.0123 H   0  0  0  0  0  0  0  0  0  0  0  0
   20.8565   18.3030   20.4510 H   0  0  0  0  0  0  0  0  0  0  0  0
   20.6467   20.2630   21.3252 C   0  0  0  0  0  0  0  0  0  0  0  0
   21.3493   20.5546   20.5313 H   0  0  0  0  0  0  0  0  0  0  0  0
   21.0970   20.9931   22.6107 C   0  0  0  0  0  0  0  0  0  0  0  0
   22.1075   20.6532   22.8723 H   0  0  0  0  0  0  0  0  0  0  0  0
   21.1952   22.0620   22.3805 H   0  0  0  0  0  0  0  0  0  0  0  0
   20.1800   20.8411   23.8495 C   0  0  0  0  0  0  0  0  0  0  0  0
   20.6516   21.3766   24.6847 H   0  0  0  0  0  0  0  0  0  0  0  0
   19.2254   21.3544   23.6715 H   0  0  0  0  0  0  0  0  0  0  0  0
   19.3395   20.6776   20.9595 O   0  0  0  0  0  0  0  0  0  0  0  0
   18.7678   20.3130   21.6641 H   0  0  0  0  0  0  0  0  0  0  0  0
  1  2  1  0  0  0  0
  1  3  1  0  0  0  0
  1  4  1  0  0  0  0
  4  5  1  0  0  0  0
  4  6  1  0  0  0  0
  4  7  1  0  0  0  0
  7  8  1  0  0  0  0
  7  9  1  0  0  0  0
  7 10  1  0  0  0  0
 10 11  1  0  0  0  0
 10 12  1  0  0  0  0
 10 13  1  0  0  0  0
 13 14  1  0  0  0  0
 13 15  1  0  0  0  0
 15 16  1  0  0  0  0
 15 17  1  0  0  0  0
  1 18  1  0  0  0  0
 15 18  1  0  0  0  0
 18 19  1  0  0  0  0
 18 20  1  0  0  0  0
 13 21  1  0  0  0  0
 21 22  1  0  0  0  0
M  END
> <VConfSearch Rank>
39

> <Conf_Id>
99

> <Delta U+W>
-3.852

> <U+W>
2.572

> <U>
3.922

> <W>
-1.350

> <W(PB)>
-3.345

> <W(SA)>
1.995

> <Valence>
12.571

> <Coulomb>
-10.581

> <VdW>
1.932

> <VdW6>
-10.483

> <VdW12>
12.415

> <Bond>
0.268

> <Angle>
3.728

> <Pdih>
8.575

> <Idih>
0.000

> <Tether>
0.000

$$$$
VeraChem MOL file


 22 22  0  0  0  0  0  0  0  0999 V2000     
   19.2975   18.1220   22.5632 C   0  0  0  0  0  0  0  0  0  0  0  0
   18.9520   17.1730   22.9961 H   0  0  0  0  0  0  0  0  0  0  0  0
   18.9381   18.1073   21.5256 H   0  0  0  0  0  0  0  0  0  0  0  0
   20.8541   18.1211   22.5918 C   0  0  0  0  0  0  0  0  0  0  0  0
   21.1824   17.1717   23.0369 H   0  0  0  0  0  0  0  0  0  0  0  0
   21.2514   18.1062   21.5681 H   0  0  0  0  0  0  0  0  0  0  0  0
   21.5192   19.2716   23.3898 C   0  0  0  0  0  0  0  0  0  0  0  0
   22.5895   19.0474   23.4940 H   0  0  0  0  0  0  0  0  0  0  0  0
   21.1376   19.2777   24.4184 H   0  0  0  0  0  0  0  0  0  0  0  0
   21.3890   20.6922   22.7736 C   0  0  0  0  0  0  0  0  0  0  0  0
   21.5300   21.4282   23.5756 H   0  0  0  0  0  0  0  0  0  0  0  0
   22.2294   20.8496   22.0844 H   0  0  0  0  0  0  0  0  0  0  0  0
   20.0880   21.0425   22.0102 C   0  0  0  0  0  0  0  0  0  0  0  0
   20.0914   22.1311   21.8560 H   0  0  0  0  0  0  0  0  0  0  0  0
   18.7592   20.6937   22.7249 C   0  0  0  0  0  0  0  0  0  0  0  0
   18.5892   21.4299   23.5210 H   0  0  0  0  0  0  0  0  0  0  0  0
   17.9450   20.8517   22.0050 H   0  0  0  0  0  0  0  0  0  0  0  0
   18.6048   19.2733   23.3361 C   0  0  0  0  0  0  0  0  0  0  0  0
   18.9484   19.2792   24.3780 H   0  0  0  0  0  0  0  0  0  0  0  0
   17.5311   19.0503   23.4008 H   0  0  0  0  0  0  0  0  0  0  0  0
   20.1114   20.4377   20.7269 O   0  0  0  0  0  0  0  0  0  0  0  0
   20.1072   19.4783   20.9176 H   0  0  0  0  0  0  0  0  0  0  0  0
  1  2  1  0  0  0  0
  1  3  1  0  0  0  0
  1  4  1  0  0  0  0
  4  5  1  0  0  0  0
  4  6  1  0  0  0  0
  4  7  1  0  0  0  0
  7  8  1  0  0  0  0
  7  9  1  0  0  0  0
  7 10  1  0  0  0  0
 10 11  1  0  0  0  0
 10 12  1  0  0  0  0
 10 13  1  0  0  0  0
 13 14  1  0  0  0  0
 13 15  1  0  0  0  0
 15 16  1  0  0  0  0
 15 17  1  0  0  0  0
  1 18  1  0  0  0  0
 15 18  1  0  0  0  0
 18 19  1  0  0  0  0
 18 20  1  0  0  0  0
 13 21  1  0  0  0  0
 21 22  1  0  0  0  0
M  END
> <VConfSearch Rank>
40

> <Conf_Id>
98

> <Delta U+W>
0.930

> <U+W>
7.353

> <U>
8.455

> <W>
-1.102

> <W(PB)>
-3.101

> <W(SA)>
2.000

> <Valence>
15.601

> <Coulomb>
-10.573

> <VdW>
3.427

> <VdW6>
-11.360

> <VdW12>
14.787

> <Bond>
0.471

> <Angle>
5.445

> <Pdih>
9.685

> <Idih>
0.000

> <Tether>
0.000

$$$$
VeraChem MOL file


 22 22  0  0  0  0  0  0  0  0999 V2000     
   18.5620   19.3114   23.5447 C   0  0  0  0  0  0  0  0  0  0  0  0
   19.0013   19.9497   24.3221 H   0  0  0  0  0  0  0  0  0  0  0  0
   17.5492   19.0818   23.9029 H   0  0  0  0  0  0  0  0  0  0  0  0
   19.3605   17.9871   23.4410 C   0  0  0  0  0  0  0  0  0  0  0  0
   19.3193   17.4983   24.4240 H   0  0  0  0  0  0  0  0  0  0  0  0
   18.8513   17.3040   22.7477 H   0  0  0  0  0  0  0  0  0  0  0  0
   20.8528   18.1157   23.0273 C   0  0  0  0  0  0  0  0  0  0  0  0
   20.9777   17.8286   21.9751 H   0  0  0  0  0  0  0  0  0  0  0  0
   21.4305   17.3726   23.5936 H   0  0  0  0  0  0  0  0  0  0  0  0
   21.4807   19.5155   23.2595 C   0  0  0  0  0  0  0  0  0  0  0  0
   21.2971   19.8250   24.2959 H   0  0  0  0  0  0  0  0  0  0  0  0
   22.5723   19.4209   23.1831 H   0  0  0  0  0  0  0  0  0  0  0  0
   21.0041   20.6429   22.2973 C   0  0  0  0  0  0  0  0  0  0  0  0
   20.7794   21.5327   22.9029 H   0  0  0  0  0  0  0  0  0  0  0  0
   19.7575   20.3166   21.4371 C   0  0  0  0  0  0  0  0  0  0  0  0
   19.5967   21.1325   20.7205 H   0  0  0  0  0  0  0  0  0  0  0  0
   19.9555   19.4311   20.8212 H   0  0  0  0  0  0  0  0  0  0  0  0
   18.4406   20.1122   22.2269 C   0  0  0  0  0  0  0  0  0  0  0  0
   18.0115   21.0955   22.4630 H   0  0  0  0  0  0  0  0  0  0  0  0
   17.7137   19.6162   21.5695 H   0  0  0  0  0  0  0  0  0  0  0  0
   22.0683   20.9536   21.4050 O   0  0  0  0  0  0  0  0  0  0  0  0
   21.7632   21.7020   20.8510 H   0  0  0  0  0  0  0  0  0  0  0  0
  1  2  1  0  0  0  0
  1  3  1  0  0  0  0
  1  4  1  0  0  0  0
  4  5  1  0  0  0  0
  4  6  1  0  0  0  0
  4  7  1  0  0  0  0
  7  8  1  0  0  0  0
  7  9  1  0  0  0  0
  7 10  1  0  0  0  0
 10 11  1  0  0  0  0
 10 12  1  0  0  0  0
 10 13  1  0  0  0  0
 13 14  1  0  0  0  0
 13 15  1  0  0  0  0
 15 16  1  0  0  0  0
 15 17  1  0  0  0  0
  1 18  1  0  0  0  0
 15 18  1  0  0  0  0
 18 19  1  0  0  0  0
 18 20  1  0  0  0  0
 13 21  1  0  0  0  0
 21 22  1  0  0  0  0
M  END
> <VConfSearch Rank>
41

> <Conf_Id>
141

> <Delta U+W>
0.000

> <U+W>
6.423

> <U>
8.781

> <W>
-2.358

> <W(PB)>
-4.373

> <W(SA)>
2.015

> <Valence>
13.328

> <Coulomb>
-8.387

> <VdW>
3.840

> <VdW6>
-9.744

> <VdW12>
13.584

> <Bond>
0.436

> <Angle>
3.478

> <Pdih>
9.415

> <Idih>
0.000

> <Tether>
0.000

$$$$
VeraChem MOL file


 22 22  0  0  0  0  0  0  0  0999 V2000     
   19.1280   20.7757   21.6750 C   0  0  0  0  0  0  0  0  0  0  0  0
   19.6704   20.3985   20.7975 H   0  0  0  0  0  0  0  0  0  0  0  0
   18.4331   21.5384   21.2978 H   0  0  0  0  0  0  0  0  0  0  0  0
   20.0933   21.4692   22.6664 C   0  0  0  0  0  0  0  0  0  0  0  0
   20.4615   22.3961   22.2058 H   0  0  0  0  0  0  0  0  0  0  0  0
   19.5354   21.7813   23.5599 H   0  0  0  0  0  0  0  0  0  0  0  0
   21.3156   20.6255   23.0958 C   0  0  0  0  0  0  0  0  0  0  0  0
   21.8803   21.1973   23.8448 H   0  0  0  0  0  0  0  0  0  0  0  0
   21.9930   20.5025   22.2396 H   0  0  0  0  0  0  0  0  0  0  0  0
   20.9758   19.2360   23.6881 C   0  0  0  0  0  0  0  0  0  0  0  0
   21.8870   18.8438   24.1586 H   0  0  0  0  0  0  0  0  0  0  0  0
   20.2330   19.3285   24.4911 H   0  0  0  0  0  0  0  0  0  0  0  0
   20.4926   18.2328   22.6168 C   0  0  0  0  0  0  0  0  0  0  0  0
   21.0102   18.4604   21.6738 H   0  0  0  0  0  0  0  0  0  0  0  0
   18.9698   18.2594   22.3527 C   0  0  0  0  0  0  0  0  0  0  0  0
   18.7925   17.7684   21.3872 H   0  0  0  0  0  0  0  0  0  0  0  0
   18.4601   17.6403   23.1030 H   0  0  0  0  0  0  0  0  0  0  0  0
   18.2931   19.6528   22.3339 C   0  0  0  0  0  0  0  0  0  0  0  0
   17.3375   19.5588   21.8002 H   0  0  0  0  0  0  0  0  0  0  0  0
   18.0296   19.9472   23.3589 H   0  0  0  0  0  0  0  0  0  0  0  0
   20.8458   16.9177   23.0279 O   0  0  0  0  0  0  0  0  0  0  0  0
   21.8218   16.9020   23.1161 H   0  0  0  0  0  0  0  0  0  0  0  0
  1  2  1  0  0  0  0
  1  3  1  0  0  0  0
  1  4  1  0  0  0  0
  4  5  1  0  0  0  0
  4  6  1  0  0  0  0
  4  7  1  0  0  0  0
  7  8  1  0  0  0  0
  7  9  1  0  0  0  0
  7 10  1  0  0  0  0
 10 11  1  0  0  0  0
 10 12  1  0  0  0  0
 10 13  1  0  0  0  0
 13 14  1  0  0  0  0
 13 15  1  0  0  0  0
 15 16  1  0  0  0  0
 15 17  1  0  0  0  0
  1 18  1  0  0  0  0
 15 18  1  0  0  0  0
 18 19  1  0  0  0  0
 18 20  1  0  0  0  0
 13 21  1  0  0  0  0
 21 22  1  0  0  0  0
M  END
> <VConfSearch Rank>
42

> <Conf_Id>
144

> <Delta U+W>
-3.291

> <U+W>
3.132

> <U>
5.411

> <W>
-2.279

> <W(PB)>
-4.300

> <W(SA)>
2.021

> <Valence>
11.909

> <Coulomb>
-8.733

> <VdW>
2.236

> <VdW6>
-8.936

> <VdW12>
11.172

> <Bond>
0.223

> <Angle>
2.457

> <Pdih>
9.228

> <Idih>
0.000

> <Tether>
0.000

$$$$
VeraChem MOL file


 22 22  0  0  0  0  0  0  0  0999 V2000     
   18.4847   20.4091   22.2625 C   0  0  0  0  0  0  0  0  0  0  0  0
   17.5772   20.7854   21.7709 H   0  0  0  0  0  0  0  0  0  0  0  0
   18.5551   20.9429   23.2200 H   0  0  0  0  0  0  0  0  0  0  0  0
   19.6928   20.7418   21.3560 C   0  0  0  0  0  0  0  0  0  0  0  0
   19.7818   19.9787   20.5708 H   0  0  0  0  0  0  0  0  0  0  0  0
   19.4918   21.6837   20.8274 H   0  0  0  0  0  0  0  0  0  0  0  0
   21.0459   20.8885   22.0932 C   0  0  0  0  0  0  0  0  0  0  0  0
   21.1249   21.9076   22.4959 H   0  0  0  0  0  0  0  0  0  0  0  0
   21.8514   20.7978   21.3516 H   0  0  0  0  0  0  0  0  0  0  0  0
   21.3101   19.8918   23.2486 C   0  0  0  0  0  0  0  0  0  0  0  0
   22.3905   19.8853   23.4461 H   0  0  0  0  0  0  0  0  0  0  0  0
   20.8421   20.2713   24.1661 H   0  0  0  0  0  0  0  0  0  0  0  0
   20.8251   18.4482   22.9872 C   0  0  0  0  0  0  0  0  0  0  0  0
   20.9407   18.2083   21.9207 H   0  0  0  0  0  0  0  0  0  0  0  0
   19.3546   18.2312   23.4112 C   0  0  0  0  0  0  0  0  0  0  0  0
   19.1527   17.1521   23.4406 H   0  0  0  0  0  0  0  0  0  0  0  0
   19.2117   18.5945   24.4372 H   0  0  0  0  0  0  0  0  0  0  0  0
   18.3011   18.8892   22.4888 C   0  0  0  0  0  0  0  0  0  0  0  0
   18.2944   18.3742   21.5184 H   0  0  0  0  0  0  0  0  0  0  0  0
   17.3078   18.7176   22.9254 H   0  0  0  0  0  0  0  0  0  0  0  0
   21.6338   17.5606   23.7477 O   0  0  0  0  0  0  0  0  0  0  0  0
   21.5058   17.8058   24.6872 H   0  0  0  0  0  0  0  0  0  0  0  0
  1  2  1  0  0  0  0
  1  3  1  0  0  0  0
  1  4  1  0  0  0  0
  4  5  1  0  0  0  0
  4  6  1  0  0  0  0
  4  7  1  0  0  0  0
  7  8  1  0  0  0  0
  7  9  1  0  0  0  0
  7 10  1  0  0  0  0
 10 11  1  0  0  0  0
 10 12  1  0  0  0  0
 10 13  1  0  0  0  0
 13 14  1  0  0  0  0
 13 15  1  0  0  0  0
 15 16  1  0  0  0  0
 15 17  1  0  0  0  0
  1 18  1  0  0  0  0
 15 18  1  0  0  0  0
 18 19  1  0  0  0  0
 18 20  1  0  0  0  0
 13 21  1  0  0  0  0
 21 22  1  0  0  0  0
M  END
> <VConfSearch Rank>
43

> <Conf_Id>
76

> <Delta U+W>
-3.175

> <U+W>
3.248

> <U>
5.336

> <W>
-2.088

> <W(PB)>
-4.098

> <W(SA)>
2.010

> <Valence>
12.390

> <Coulomb>
-9.270

> <VdW>
2.216

> <VdW6>
-8.967

> <VdW12>
11.183

> <Bond>
0.218

> <Angle>
2.426

> <Pdih>
9.745

> <Idih>
0.000

> <Tether>
0.000

$$$$
VeraChem MOL file


 22 22  0  0  0  0  0  0  0  0999 V2000     
   21.9390   19.4531   22.5963 C   0  0  0  0  0  0  0  0  0  0  0  0
   22.6641   20.1995   22.9482 H   0  0  0  0  0  0  0  0  0  0  0  0
   22.5354   18.5961   22.2547 H   0  0  0  0  0  0  0  0  0  0  0  0
   21.1790   20.0490   21.3873 C   0  0  0  0  0  0  0  0  0  0  0  0
   21.0195   21.1238   21.5480 H   0  0  0  0  0  0  0  0  0  0  0  0
   21.8323   19.9776   20.5070 H   0  0  0  0  0  0  0  0  0  0  0  0
   19.8269   19.3708   21.0655 C   0  0  0  0  0  0  0  0  0  0  0  0
   19.8814   18.2861   21.2310 H   0  0  0  0  0  0  0  0  0  0  0  0
   19.6240   19.5057   19.9945 H   0  0  0  0  0  0  0  0  0  0  0  0
   18.6432   19.9895   21.8516 C   0  0  0  0  0  0  0  0  0  0  0  0
   18.6570   21.0797   21.7257 H   0  0  0  0  0  0  0  0  0  0  0  0
   17.7041   19.6519   21.3938 H   0  0  0  0  0  0  0  0  0  0  0  0
   18.5812   19.6637   23.3613 C   0  0  0  0  0  0  0  0  0  0  0  0
   17.8079   20.3144   23.7946 H   0  0  0  0  0  0  0  0  0  0  0  0
   19.8906   19.9266   24.1467 C   0  0  0  0  0  0  0  0  0  0  0  0
   20.1938   20.9744   24.0244 H   0  0  0  0  0  0  0  0  0  0  0  0
   19.6660   19.8063   25.2144 H   0  0  0  0  0  0  0  0  0  0  0  0
   21.0724   18.9876   23.7907 C   0  0  0  0  0  0  0  0  0  0  0  0
   21.7279   18.8963   24.6674 H   0  0  0  0  0  0  0  0  0  0  0  0
   20.7020   17.9722   23.5980 H   0  0  0  0  0  0  0  0  0  0  0  0
   18.1701   18.3111   23.5335 O   0  0  0  0  0  0  0  0  0  0  0  0
   18.1945   18.1326   24.4957 H   0  0  0  0  0  0  0  0  0  0  0  0
  1  2  1  0  0  0  0
  1  3  1  0  0  0  0
  1  4  1  0  0  0  0
  4  5  1  0  0  0  0
  4  6  1  0  0  0  0
  4  7  1  0  0  0  0
  7  8  1  0  0  0  0
  7  9  1  0  0  0  0
  7 10  1  0  0  0  0
 10 11  1  0  0  0  0
 10 12  1  0  0  0  0
 10 13  1  0  0  0  0
 13 14  1  0  0  0  0
 13 15  1  0  0  0  0
 15 16  1  0  0  0  0
 15 17  1  0  0  0  0
  1 18  1  0  0  0  0
 15 18  1  0  0  0  0
 18 19  1  0  0  0  0
 18 20  1  0  0  0  0
 13 21  1  0  0  0  0
 21 22  1  0  0  0  0
M  END
> <VConfSearch Rank>
44

> <Conf_Id>
95

> <Delta U+W>
-2.289

> <U+W>
4.134

> <U>
6.373

> <W>
-2.240

> <W(PB)>
-4.254

> <W(SA)>
2.015

> <Valence>
12.093

> <Coulomb>
-8.058

> <VdW>
2.339

> <VdW6>
-9.683

> <VdW12>
12.022

> <Bond>
0.268

> <Angle>
3.005

> <Pdih>
8.820

> <Idih>
0.000

> <Tether>
0.000

$$$$
VeraChem MOL file


 22 22  0  0  0  0  0  0  0  0999 V2000     
   18.8220   18.5085   21.7565 C   0  0  0  0  0  0  0  0  0  0  0  0
   18.8806   18.1795   20.7100 H   0  0  0  0  0  0  0  0  0  0  0  0
   17.9257   18.0267   22.1705 H   0  0  0  0  0  0  0  0  0  0  0  0
   18.6181   20.0423   21.7708 C   0  0  0  0  0  0  0  0  0  0  0  0
   19.1853   20.4945   20.9460 H   0  0  0  0  0  0  0  0  0  0  0  0
   17.5621   20.2463   21.5471 H   0  0  0  0  0  0  0  0  0  0  0  0
   18.9943   20.7411   23.0981 C   0  0  0  0  0  0  0  0  0  0  0  0
   18.7185   20.1200   23.9613 H   0  0  0  0  0  0  0  0  0  0  0  0
   18.3975   21.6595   23.1802 H   0  0  0  0  0  0  0  0  0  0  0  0
   20.4897   21.1426   23.1591 C   0  0  0  0  0  0  0  0  0  0  0  0
   20.7529   21.6870   22.2431 H   0  0  0  0  0  0  0  0  0  0  0  0
   20.6266   21.8635   23.9756 H   0  0  0  0  0  0  0  0  0  0  0  0
   21.4985   19.9877   23.3550 C   0  0  0  0  0  0  0  0  0  0  0  0
   22.5011   20.4122   23.2011 H   0  0  0  0  0  0  0  0  0  0  0  0
   21.3479   18.8073   22.3628 C   0  0  0  0  0  0  0  0  0  0  0  0
   21.4350   19.1716   21.3312 H   0  0  0  0  0  0  0  0  0  0  0  0
   22.2061   18.1410   22.5190 H   0  0  0  0  0  0  0  0  0  0  0  0
   20.0523   17.9704   22.5253 C   0  0  0  0  0  0  0  0  0  0  0  0
   20.2473   16.9475   22.1761 H   0  0  0  0  0  0  0  0  0  0  0  0
   19.8036   17.8705   23.5901 H   0  0  0  0  0  0  0  0  0  0  0  0
   21.4188   19.5133   24.6957 O   0  0  0  0  0  0  0  0  0  0  0  0
   21.5022   20.2966   25.2768 H   0  0  0  0  0  0  0  0  0  0  0  0
  1  2  1  0  0  0  0
  1  3  1  0  0  0  0
  1  4  1  0  0  0  0
  4  5  1  0  0  0  0
  4  6  1  0  0  0  0
  4  7  1  0  0  0  0
  7  8  1  0  0  0  0
  7  9  1  0  0  0  0
  7 10  1  0  0  0  0
 10 11  1  0  0  0  0
 10 12  1  0  0  0  0
 10 13  1  0  0  0  0
 13 14  1  0  0  0  0
 13 15  1  0  0  0  0
 15 16  1  0  0  0  0
 15 17  1  0  0  0  0
  1 18  1  0  0  0  0
 15 18  1  0  0  0  0
 18 19  1  0  0  0  0
 18 20  1  0  0  0  0
 13 21  1  0  0  0  0
 21 22  1  0  0  0  0
M  END
> <VConfSearch Rank>
45

> <Conf_Id>
41

> <Delta U+W>
-2.114

> <U+W>
4.310

> <U>
6.598

> <W>
-2.289

> <W(PB)>
-4.294

> <W(SA)>
2.005

> <Valence>
12.082

> <Coulomb>
-7.801

> <VdW>
2.317

> <VdW6>
-9.658

> <VdW12>
11.975

> <Bond>
0.267

> <Angle>
3.051

> <Pdih>
8.764

> <Idih>
0.000

> <Tether>
0.000

$$$$
VeraChem MOL file


 22 22  0  0  0  0  0  0  0  0999 V2000     
   20.4862   20.0921   21.1956 C   0  0  0  0  0  0  0  0  0  0  0  0
   20.5450   20.6151   20.2315 H   0  0  0  0  0  0  0  0  0  0  0  0
   21.4725   19.6364   21.3594 H   0  0  0  0  0  0  0  0  0  0  0  0
   19.3944   19.0051   21.0792 C   0  0  0  0  0  0  0  0  0  0  0  0
   18.4101   19.4821   20.9786 H   0  0  0  0  0  0  0  0  0  0  0  0
   19.5545   18.4454   20.1477 H   0  0  0  0  0  0  0  0  0  0  0  0
   19.3614   17.9973   22.2491 C   0  0  0  0  0  0  0  0  0  0  0  0
   20.2637   17.3722   22.2185 H   0  0  0  0  0  0  0  0  0  0  0  0
   18.5217   17.3100   22.0799 H   0  0  0  0  0  0  0  0  0  0  0  0
   19.1998   18.6279   23.6589 C   0  0  0  0  0  0  0  0  0  0  0  0
   18.3430   19.3134   23.6689 H   0  0  0  0  0  0  0  0  0  0  0  0
   18.9416   17.8206   24.3561 H   0  0  0  0  0  0  0  0  0  0  0  0
   20.4517   19.3419   24.2307 C   0  0  0  0  0  0  0  0  0  0  0  0
   20.2904   19.4418   25.3139 H   0  0  0  0  0  0  0  0  0  0  0  0
   20.7148   20.7753   23.7001 C   0  0  0  0  0  0  0  0  0  0  0  0
   20.2762   21.4859   24.4126 H   0  0  0  0  0  0  0  0  0  0  0  0
   21.7945   20.9730   23.7239 H   0  0  0  0  0  0  0  0  0  0  0  0
   20.1764   21.1342   22.2929 C   0  0  0  0  0  0  0  0  0  0  0  0
   19.0935   21.3117   22.3419 H   0  0  0  0  0  0  0  0  0  0  0  0
   20.6192   22.0956   21.9993 H   0  0  0  0  0  0  0  0  0  0  0  0
   21.6137   18.5392   24.0403 O   0  0  0  0  0  0  0  0  0  0  0  0
   22.3598   19.0193   24.4537 H   0  0  0  0  0  0  0  0  0  0  0  0
  1  2  1  0  0  0  0
  1  3  1  0  0  0  0
  1  4  1  0  0  0  0
  4  5  1  0  0  0  0
  4  6  1  0  0  0  0
  4  7  1  0  0  0  0
  7  8  1  0  0  0  0
  7  9  1  0  0  0  0
  7 10  1  0  0  0  0
 10 11  1  0  0  0  0
 10 12  1  0  0  0  0
 10 13  1  0  0  0  0
 13 14  1  0  0  0  0
 13 15  1  0  0  0  0
 15 16  1  0  0  0  0
 15 17  1  0  0  0  0
  1 18  1  0  0  0  0
 15 18  1  0  0  0  0
 18 19  1  0  0  0  0
 18 20  1  0  0  0  0
 13 21  1  0  0  0  0
 21 22  1  0  0  0  0
M  END
> <VConfSearch Rank>
46

> <Conf_Id>
104

> <Delta U+W>
-1.172

> <U+W>
5.252

> <U>
7.482

> <W>
-2.230

> <W(PB)>
-4.220

> <W(SA)>
1.990

> <Valence>
12.309

> <Coulomb>
-7.084

> <VdW>
2.258

> <VdW6>
-9.770

> <VdW12>
12.028

> <Bond>
0.284

> <Angle>
3.491

> <Pdih>
8.535

> <Idih>
0.000

> <Tether>
0.000

$$$$
VeraChem MOL file


 22 22  0  0  0  0  0  0  0  0999 V2000     
   21.5071   18.7993   22.6332 C   0  0  0  0  0  0  0  0  0  0  0  0
   21.1097   17.9159   23.1510 H   0  0  0  0  0  0  0  0  0  0  0  0
   22.5729   18.5950   22.4618 H   0  0  0  0  0  0  0  0  0  0  0  0
   21.4044   20.0561   23.5272 C   0  0  0  0  0  0  0  0  0  0  0  0
   22.2316   20.0403   24.2502 H   0  0  0  0  0  0  0  0  0  0  0  0
   21.5782   20.9519   22.9166 H   0  0  0  0  0  0  0  0  0  0  0  0
   20.0840   20.2072   24.3242 C   0  0  0  0  0  0  0  0  0  0  0  0
   19.9269   21.2734   24.5383 H   0  0  0  0  0  0  0  0  0  0  0  0
   20.2136   19.7295   25.3050 H   0  0  0  0  0  0  0  0  0  0  0  0
   18.7960   19.6208   23.6851 C   0  0  0  0  0  0  0  0  0  0  0  0
   18.7805   18.5344   23.8412 H   0  0  0  0  0  0  0  0  0  0  0  0
   17.9342   20.0044   24.2466 H   0  0  0  0  0  0  0  0  0  0  0  0
   18.5593   19.9102   22.1850 C   0  0  0  0  0  0  0  0  0  0  0  0
   17.4829   19.7916   21.9950 H   0  0  0  0  0  0  0  0  0  0  0  0
   19.2892   18.9114   21.2587 C   0  0  0  0  0  0  0  0  0  0  0  0
   18.9795   17.8928   21.5263 H   0  0  0  0  0  0  0  0  0  0  0  0
   18.9293   19.0698   20.2336 H   0  0  0  0  0  0  0  0  0  0  0  0
   20.8364   18.9796   21.2506 C   0  0  0  0  0  0  0  0  0  0  0  0
   21.2044   18.1887   20.5830 H   0  0  0  0  0  0  0  0  0  0  0  0
   21.1652   19.9246   20.7973 H   0  0  0  0  0  0  0  0  0  0  0  0
   18.9402   21.2400   21.8676 O   0  0  0  0  0  0  0  0  0  0  0  0
   19.8782   21.2908   22.1393 H   0  0  0  0  0  0  0  0  0  0  0  0
  1  2  1  0  0  0  0
  1  3  1  0  0  0  0
  1  4  1  0  0  0  0
  4  5  1  0  0  0  0
  4  6  1  0  0  0  0
  4  7  1  0  0  0  0
  7  8  1  0  0  0  0
  7  9  1  0  0  0  0
  7 10  1  0  0  0  0
 10 11  1  0  0  0  0
 10 12  1  0  0  0  0
 10 13  1  0  0  0  0
 13 14  1  0  0  0  0
 13 15  1  0  0  0  0
 15 16  1  0  0  0  0
 15 17  1  0  0  0  0
  1 18  1  0  0  0  0
 15 18  1  0  0  0  0
 18 19  1  0  0  0  0
 18 20  1  0  0  0  0
 13 21  1  0  0  0  0
 21 22  1  0  0  0  0
M  END
> <VConfSearch Rank>
47

> <Conf_Id>
99

> <Delta U+W>
-3.852

> <U+W>
2.572

> <U>
3.922

> <W>
-1.350

> <W(PB)>
-3.345

> <W(SA)>
1.995

> <Valence>
12.571

> <Coulomb>
-10.581

> <VdW>
1.932

> <VdW6>
-10.483

> <VdW12>
12.415

> <Bond>
0.268

> <Angle>
3.728

> <Pdih>
8.575

> <Idih>
0.000

> <Tether>
0.000

$$$$
VeraChem MOL file


 22 22  0  0  0  0  0  0  0  0999 V2000     
   21.3754   20.5839   22.3527 C   0  0  0  0  0  0  0  0  0  0  0  0
   21.9386   21.2580   21.6925 H   0  0  0  0  0  0  0  0  0  0  0  0
   21.9540   20.5528   23.2856 H   0  0  0  0  0  0  0  0  0  0  0  0
   21.3515   19.1758   21.6891 C   0  0  0  0  0  0  0  0  0  0  0  0
   21.9045   19.2403   20.7418 H   0  0  0  0  0  0  0  0  0  0  0  0
   21.9183   18.4601   22.2996 H   0  0  0  0  0  0  0  0  0  0  0  0
   19.9482   18.5955   21.3781 C   0  0  0  0  0  0  0  0  0  0  0  0
   20.0735   17.7057   20.7461 H   0  0  0  0  0  0  0  0  0  0  0  0
   19.3861   19.3005   20.7531 H   0  0  0  0  0  0  0  0  0  0  0  0
   19.0917   18.1874   22.6088 C   0  0  0  0  0  0  0  0  0  0  0  0
   18.0371   18.1770   22.3045 H   0  0  0  0  0  0  0  0  0  0  0  0
   19.3293   17.1468   22.8670 H   0  0  0  0  0  0  0  0  0  0  0  0
   19.2202   19.0298   23.9019 C   0  0  0  0  0  0  0  0  0  0  0  0
   18.3904   18.7339   24.5596 H   0  0  0  0  0  0  0  0  0  0  0  0
   19.1323   20.5663   23.7302 C   0  0  0  0  0  0  0  0  0  0  0  0
   18.0826   20.8371   23.5586 H   0  0  0  0  0  0  0  0  0  0  0  0
   19.3957   21.0224   24.6938 H   0  0  0  0  0  0  0  0  0  0  0  0
   19.9930   21.2319   22.6207 C   0  0  0  0  0  0  0  0  0  0  0  0
   19.4196   21.2808   21.6866 H   0  0  0  0  0  0  0  0  0  0  0  0
   20.1513   22.2817   22.9027 H   0  0  0  0  0  0  0  0  0  0  0  0
   20.4254   18.6937   24.5712 O   0  0  0  0  0  0  0  0  0  0  0  0
   21.1270   18.9746   23.9500 H   0  0  0  0  0  0  0  0  0  0  0  0
  1  2  1  0  0  0  0
  1  3  1  0  0  0  0
  1  4  1  0  0  0  0
  4  5  1  0  0  0  0
  4  6  1  0  0  0  0
  4  7  1  0  0  0  0
  7  8  1  0  0  0  0
  7  9  1  0  0  0  0
  7 10  1  0  0  0  0
 10 11  1  0  0  0  0
 10 12  1  0  0  0  0
 10 13  1  0  0  0  0
 13 14  1  0  0  0  0
 13 15  1  0  0  0  0
 15 16  1  0  0  0  0
 15 17  1  0  0  0  0
  1 18  1  0  0  0  0
 15 18  1  0  0  0  0
 18 19  1  0  0  0  0
 18 20  1  0  0  0  0
 13 21  1  0  0  0  0
 21 22  1  0  0  0  0
M  END
> <VConfSearch Rank>
48

> <Conf_Id>
98

> <Delta U+W>
0.930

> <U+W>
7.353

> <U>
8.455

> <W>
-1.102

> <W(PB)>
-3.101

> <W(SA)>
2.000

> <Valence>
15.601

> <Coulomb>
-10.573

> <VdW>
3.427

> <VdW6>
-11.360

> <VdW12>
14.787

> <Bond>
0.471

> <Angle>
5.445

> <Pdih>
9.685

> <Idih>
0.000

> <Tether>
0.000

$$$$
VeraChem MOL file


 22 22  0  0  0  0  0  0  0  0999 V2000     
   20.0040   21.2518   22.6022 C   0  0  0  0  0  0  0  0  0  0  0  0
   20.1821   21.2346   23.6851 H   0  0  0  0  0  0  0  0  0  0  0  0
   20.0130   22.3157   22.3287 H   0  0  0  0  0  0  0  0  0  0  0  0
   18.5991   20.6749   22.2930 C   0  0  0  0  0  0  0  0  0  0  0  0
   17.8633   21.2935   22.8247 H   0  0  0  0  0  0  0  0  0  0  0  0
   18.3769   20.8008   21.2246 H   0  0  0  0  0  0  0  0  0  0  0  0
   18.3628   19.1919   22.6924 C   0  0  0  0  0  0  0  0  0  0  0  0
   18.4025   18.5514   21.8018 H   0  0  0  0  0  0  0  0  0  0  0  0
   17.3331   19.0970   23.0631 H   0  0  0  0  0  0  0  0  0  0  0  0
   19.3321   18.6393   23.7706 C   0  0  0  0  0  0  0  0  0  0  0  0
   19.3363   19.3179   24.6326 H   0  0  0  0  0  0  0  0  0  0  0  0
   18.9189   17.6973   24.1557 H   0  0  0  0  0  0  0  0  0  0  0  0
   20.7977   18.3940   23.3060 C   0  0  0  0  0  0  0  0  0  0  0  0
   21.4696   18.8105   24.0702 H   0  0  0  0  0  0  0  0  0  0  0  0
   21.1852   19.0061   21.9366 C   0  0  0  0  0  0  0  0  0  0  0  0
   22.1928   18.6639   21.6666 H   0  0  0  0  0  0  0  0  0  0  0  0
   20.5291   18.6057   21.1544 H   0  0  0  0  0  0  0  0  0  0  0  0
   21.1773   20.5539   21.8748 C   0  0  0  0  0  0  0  0  0  0  0  0
   22.1166   20.9315   22.3013 H   0  0  0  0  0  0  0  0  0  0  0  0
   21.1807   20.8604   20.8199 H   0  0  0  0  0  0  0  0  0  0  0  0
   21.0148   16.9900   23.2222 O   0  0  0  0  0  0  0  0  0  0  0  0
   21.9571   16.8634   22.9849 H   0  0  0  0  0  0  0  0  0  0  0  0
  1  2  1  0  0  0  0
  1  3  1  0  0  0  0
  1  4  1  0  0  0  0
  4  5  1  0  0  0  0
  4  6  1  0  0  0  0
  4  7  1  0  0  0  0
  7  8  1  0  0  0  0
  7  9  1  0  0  0  0
  7 10  1  0  0  0  0
 10 11  1  0  0  0  0
 10 12  1  0  0  0  0
 10 13  1  0  0  0  0
 13 14  1  0  0  0  0
 13 15  1  0  0  0  0
 15 16  1  0  0  0  0
 15 17  1  0  0  0  0
  1 18  1  0  0  0  0
 15 18  1  0  0  0  0
 18 19  1  0  0  0  0
 18 20  1  0  0  0  0
 13 21  1  0  0  0  0
 21 22  1  0  0  0  0
M  END
> <VConfSearch Rank>
49

> <Conf_Id>
141

> <Delta U+W>
0.000

> <U+W>
6.423

> <U>
8.781

> <W>
-2.358

> <W(PB)>
-4.373

> <W(SA)>
2.015

> <Valence>
13.328

> <Coulomb>
-8.387

> <VdW>
3.840

> <VdW6>
-9.744

> <VdW12>
13.584

> <Bond>
0.436

> <Angle>
3.478

> <Pdih>
9.415

> <Idih>
0.000

> <Tether>
0.000

$$$$
VeraChem MOL file


 22 22  0  0  0  0  0  0  0  0999 V2000     
   19.7040   21.1318   23.4748 C   0  0  0  0  0  0  0  0  0  0  0  0
   20.7548   21.3957   23.2938 H   0  0  0  0  0  0  0  0  0  0  0  0
   19.2520   22.0044   23.9658 H   0  0  0  0  0  0  0  0  0  0  0  0
   19.5941   19.9349   24.4500 C   0  0  0  0  0  0  0  0  0  0  0  0
   19.9252   20.2626   25.4449 H   0  0  0  0  0  0  0  0  0  0  0  0
   18.5381   19.6543   24.5644 H   0  0  0  0  0  0  0  0  0  0  0  0
   20.4152   18.6856   24.0558 C   0  0  0  0  0  0  0  0  0  0  0  0
   20.2009   17.8913   24.7838 H   0  0  0  0  0  0  0  0  0  0  0  0
   21.4866   18.9057   24.1593 H   0  0  0  0  0  0  0  0  0  0  0  0
   20.1357   18.1412   22.6337 C   0  0  0  0  0  0  0  0  0  0  0  0
   20.5922   17.1450   22.5640 H   0  0  0  0  0  0  0  0  0  0  0  0
   19.0587   17.9951   22.4797 H   0  0  0  0  0  0  0  0  0  0  0  0
   20.7239   19.0413   21.5240 C   0  0  0  0  0  0  0  0  0  0  0  0
   21.6476   19.4993   21.9059 H   0  0  0  0  0  0  0  0  0  0  0  0
   19.7830   20.1716   21.0482 C   0  0  0  0  0  0  0  0  0  0  0  0
   20.3969   20.9147   20.5231 H   0  0  0  0  0  0  0  0  0  0  0  0
   19.0864   19.7731   20.2985 H   0  0  0  0  0  0  0  0  0  0  0  0
   18.9564   20.8929   22.1421 C   0  0  0  0  0  0  0  0  0  0  0  0
   18.6298   21.8607   21.7378 H   0  0  0  0  0  0  0  0  0  0  0  0
   18.0338   20.3293   22.3369 H   0  0  0  0  0  0  0  0  0  0  0  0
   21.0445   18.2320   20.3991 O   0  0  0  0  0  0  0  0  0  0  0  0
   21.6993   17.5700   20.7051 H   0  0  0  0  0  0  0  0  0  0  0  0
  1  2  1  0  0  0  0
  1  3  1  0  0  0  0
  1  4  1  0  0  0  0
  4  5  1  0  0  0  0
  4  6  1  0  0  0  0
  4  7  1  0  0  0  0
  7  8  1  0  0  0  0
  7  9  1  0  0  0  0
  7 10  1  0  0  0  0
 10 11  1  0  0  0  0
 10 12  1  0  0  0  0
 10 13  1  0  0  0  0
 13 14  1  0  0  0  0
 13 15  1  0  0  0  0
 15 16  1  0  0  0  0
 15 17  1  0  0  0  0
  1 18  1  0  0  0  0
 15 18  1  0  0  0  0
 18 19  1  0  0  0  0
 18 20  1  0  0  0  0
 13 21  1  0  0  0  0
 21 22  1  0  0  0  0
M  END
> <VConfSearch Rank>
50

> <Conf_Id>
144

> <Delta U+W>
-3.291

> <U+W>
3.132

> <U>
5.411

> <W>
-2.279

> <W(PB)>
-4.300

> <W(SA)>
2.021

> <Valence>
11.909

> <Coulomb>
-8.733

> <VdW>
2.236

> <VdW6>
-8.936

> <VdW12>
11.172

> <Bond>
0.223

> <Angle>
2.457

> <Pdih>
9.228

> <Idih>
0.000

> <Tether>
0.000

$$$$
VeraChem MOL file


 22 22  0  0  0  0  0  0  0  0999 V2000     
   21.2991   20.6257   22.7214 C   0  0  0  0  0  0  0  0  0  0  0  0
   22.0208   21.4036   23.0059 H   0  0  0  0  0  0  0  0  0  0  0  0
   21.7056   20.1496   21.8188 H   0  0  0  0  0  0  0  0  0  0  0  0
   19.9475   21.3145   22.4200 C   0  0  0  0  0  0  0  0  0  0  0  0
   19.4099   21.4924   23.3614 H   0  0  0  0  0  0  0  0  0  0  0  0
   20.1422   22.3114   22.0013 H   0  0  0  0  0  0  0  0  0  0  0  0
   19.0290   20.5541   21.4331 C   0  0  0  0  0  0  0  0  0  0  0  0
   19.3306   20.7967   20.4049 H   0  0  0  0  0  0  0  0  0  0  0  0
   18.0084   20.9454   21.5446 H   0  0  0  0  0  0  0  0  0  0  0  0
   18.9959   19.0123   21.5747 C   0  0  0  0  0  0  0  0  0  0  0  0
   18.0912   18.6480   21.0695 H   0  0  0  0  0  0  0  0  0  0  0  0
   19.8400   18.5813   21.0210 H   0  0  0  0  0  0  0  0  0  0  0  0
   19.0195   18.4911   23.0291 C   0  0  0  0  0  0  0  0  0  0  0  0
   18.4697   19.1870   23.6787 H   0  0  0  0  0  0  0  0  0  0  0  0
   20.4559   18.3038   23.5682 C   0  0  0  0  0  0  0  0  0  0  0  0
   20.4113   17.7040   24.4872 H   0  0  0  0  0  0  0  0  0  0  0  0
   21.0427   17.7158   22.8506 H   0  0  0  0  0  0  0  0  0  0  0  0
   21.2131   19.6142   23.8894 C   0  0  0  0  0  0  0  0  0  0  0  0
   20.7485   20.0993   24.7587 H   0  0  0  0  0  0  0  0  0  0  0  0
   22.2332   19.3531   24.2024 H   0  0  0  0  0  0  0  0  0  0  0  0
   18.3732   17.2256   23.0608 O   0  0  0  0  0  0  0  0  0  0  0  0
   18.8887   16.6369   22.4719 H   0  0  0  0  0  0  0  0  0  0  0  0
  1  2  1  0  0  0  0
  1  3  1  0  0  0  0
  1  4  1  0  0  0  0
  4  5  1  0  0  0  0
  4  6  1  0  0  0  0
  4  7  1  0  0  0  0
  7  8  1  0  0  0  0
  7  9  1  0  0  0  0
  7 10  1  0  0  0  0
 10 11  1  0  0  0  0
 10 12  1  0  0  0  0
 10 13  1  0  0  0  0
 13 14  1  0  0  0  0
 13 15  1  0  0  0  0
 15 16  1  0  0  0  0
 15 17  1  0  0  0  0
  1 18  1  0  0  0  0
 15 18  1  0  0  0  0
 18 19  1  0  0  0  0
 18 20  1  0  0  0  0
 13 21  1  0  0  0  0
 21 22  1  0  0  0  0
M  END
> <VConfSearch Rank>
51

> <Conf_Id>
76

> <Delta U+W>
-3.175

> <U+W>
3.248

> <U>
5.336

> <W>
-2.088

> <W(PB)>
-4.098

> <W(SA)>
2.010

> <Valence>
12.390

> <Coulomb>
-9.270

> <VdW>
2.216

> <VdW6>
-8.967

> <VdW12>
11.183

> <Bond>
0.218

> <Angle>
2.426

> <Pdih>
9.745

> <Idih>
0.000

> <Tether>
0.000

$$$$
VeraChem MOL file


 22 22  0  0  0  0  0  0  0  0999 V2000     
   19.4661   19.0207   24.3806 C   0  0  0  0  0  0  0  0  0  0  0  0
   18.8515   18.1419   24.6191 H   0  0  0  0  0  0  0  0  0  0  0  0
   19.7242   19.4751   25.3469 H   0  0  0  0  0  0  0  0  0  0  0  0
   18.5962   20.0153   23.5752 C   0  0  0  0  0  0  0  0  0  0  0  0
   17.9246   19.4582   22.9081 H   0  0  0  0  0  0  0  0  0  0  0  0
   17.9390   20.5406   24.2815 H   0  0  0  0  0  0  0  0  0  0  0  0
   19.3872   21.0597   22.7535 C   0  0  0  0  0  0  0  0  0  0  0  0
   20.2837   21.3901   23.2957 H   0  0  0  0  0  0  0  0  0  0  0  0
   18.7561   21.9510   22.6368 H   0  0  0  0  0  0  0  0  0  0  0  0
   19.7559   20.5536   21.3357 C   0  0  0  0  0  0  0  0  0  0  0  0
   18.8542   20.1642   20.8460 H   0  0  0  0  0  0  0  0  0  0  0  0
   20.0734   21.4119   20.7291 H   0  0  0  0  0  0  0  0  0  0  0  0
   20.8659   19.4806   21.2607 C   0  0  0  0  0  0  0  0  0  0  0  0
   20.8749   19.1056   20.2271 H   0  0  0  0  0  0  0  0  0  0  0  0
   20.6628   18.2562   22.1880 C   0  0  0  0  0  0  0  0  0  0  0  0
   19.6976   17.7808   21.9704 H   0  0  0  0  0  0  0  0  0  0  0  0
   21.4252   17.5116   21.9250 H   0  0  0  0  0  0  0  0  0  0  0  0
   20.7776   18.5527   23.7059 C   0  0  0  0  0  0  0  0  0  0  0  0
   21.1145   17.6422   24.2195 H   0  0  0  0  0  0  0  0  0  0  0  0
   21.5651   19.2963   23.8860 H   0  0  0  0  0  0  0  0  0  0  0  0
   22.1263   20.0895   21.5227 O   0  0  0  0  0  0  0  0  0  0  0  0
   22.7901   19.3700   21.5168 H   0  0  0  0  0  0  0  0  0  0  0  0
  1  2  1  0  0  0  0
  1  3  1  0  0  0  0
  1  4  1  0  0  0  0
  4  5  1  0  0  0  0
  4  6  1  0  0  0  0
  4  7  1  0  0  0  0
  7  8  1  0  0  0  0
  7  9  1  0  0  0  0
  7 10  1  0  0  0  0
 10 11  1  0  0  0  0
 10 12  1  0  0  0  0
 10 13  1  0  0  0  0
 13 14  1  0  0  0  0
 13 15  1  0  0  0  0
 15 16  1  0  0  0  0
 15 17  1  0  0  0  0
  1 18  1  0  0  0  0
 15 18  1  0  0  0  0
 18 19  1  0  0  0  0
 18 20  1  0  0  0  0
 13 21  1  0  0  0  0
 21 22  1  0  0  0  0
M  END
> <VConfSearch Rank>
52

> <Conf_Id>
95

> <Delta U+W>
-2.289

> <U+W>
4.134

> <U>
6.373

> <W>
-2.240

> <W(PB)>
-4.254

> <W(SA)>
2.015

> <Valence>
12.093

> <Coulomb>
-8.058

> <VdW>
2.339

> <VdW6>
-9.683

> <VdW12>
12.022

> <Bond>
0.268

> <Angle>
3.005

> <Pdih>
8.820

> <Idih>
0.000

> <Tether>
0.000

$$$$
VeraChem MOL file


 22 22  0  0  0  0  0  0  0  0999 V2000     
   21.7952   19.0418   23.2019 C   0  0  0  0  0  0  0  0  0  0  0  0
   22.1253   18.0195   23.4314 H   0  0  0  0  0  0  0  0  0  0  0  0
   22.6942   19.6688   23.2756 H   0  0  0  0  0  0  0  0  0  0  0  0
   20.7875   19.4809   24.2910 C   0  0  0  0  0  0  0  0  0  0  0  0
   20.1759   18.6197   24.5922 H   0  0  0  0  0  0  0  0  0  0  0  0
   21.3576   19.7633   25.1866 H   0  0  0  0  0  0  0  0  0  0  0  0
   19.8631   20.6551   23.8933 C   0  0  0  0  0  0  0  0  0  0  0  0
   20.4038   21.3926   23.2846 H   0  0  0  0  0  0  0  0  0  0  0  0
   19.5635   21.1783   24.8114 H   0  0  0  0  0  0  0  0  0  0  0  0
   18.5729   20.1833   23.1761 C   0  0  0  0  0  0  0  0  0  0  0  0
   18.1036   19.3872   23.7685 H   0  0  0  0  0  0  0  0  0  0  0  0
   17.8501   21.0095   23.1747 H   0  0  0  0  0  0  0  0  0  0  0  0
   18.7441   19.6834   21.7234 C   0  0  0  0  0  0  0  0  0  0  0  0
   17.7868   19.2296   21.4288 H   0  0  0  0  0  0  0  0  0  0  0  0
   19.8383   18.6050   21.5235 C   0  0  0  0  0  0  0  0  0  0  0  0
   19.6326   17.7390   22.1655 H   0  0  0  0  0  0  0  0  0  0  0  0
   19.7502   18.2410   20.4917 H   0  0  0  0  0  0  0  0  0  0  0  0
   21.2941   19.0947   21.7389 C   0  0  0  0  0  0  0  0  0  0  0  0
   21.9675   18.4775   21.1292 H   0  0  0  0  0  0  0  0  0  0  0  0
   21.4058   20.1156   21.3505 H   0  0  0  0  0  0  0  0  0  0  0  0
   18.9902   20.7949   20.8674 O   0  0  0  0  0  0  0  0  0  0  0  0
   18.2841   21.4491   21.0455 H   0  0  0  0  0  0  0  0  0  0  0  0
  1  2  1  0  0  0  0
  1  3  1  0  0  0  0
  1  4  1  0  0  0  0
  4  5  1  0  0  0  0
  4  6  1  0  0  0  0
  4  7  1  0  0  0  0
  7  8  1  0  0  0  0
  7  9  1  0  0  0  0
  7 10  1  0  0  0  0
 10 11  1  0  0  0  0
 10 12  1  0  0  0  0
 10 13  1  0  0  0  0
 13 14  1  0  0  0  0
 13 15  1  0  0  0  0
 15 16  1  0  0  0  0
 15 17  1  0  0  0  0
  1 18  1  0  0  0  0
 15 18  1  0  0  0  0
 18 19  1  0  0  0  0
 18 20  1  0  0  0  0
 13 21  1  0  0  0  0
 21 22  1  0  0  0  0
M  END
> <VConfSearch Rank>
53

> <Conf_Id>
41

> <Delta U+W>
-2.114

> <U+W>
4.310

> <U>
6.598

> <W>
-2.289

> <W(PB)>
-4.294

> <W(SA)>
2.005

> <Valence>
12.082

> <Coulomb>
-7.801

> <VdW>
2.317

> <VdW6>
-9.658

> <VdW12>
11.975

> <Bond>
0.267

> <Angle>
3.051

> <Pdih>
8.764

> <Idih>
0.000

> <Tether>
0.000

$$$$
VeraChem MOL file


 22 22  0  0  0  0  0  0  0  0999 V2000     
   19.6150   21.1341   22.6291 C   0  0  0  0  0  0  0  0  0  0  0  0
   19.2009   22.1109   22.3445 H   0  0  0  0  0  0  0  0  0  0  0  0
   19.7863   21.1764   23.7136 H   0  0  0  0  0  0  0  0  0  0  0  0
   20.9487   20.9460   21.8722 C   0  0  0  0  0  0  0  0  0  0  0  0
   20.7497   20.8437   20.7967 H   0  0  0  0  0  0  0  0  0  0  0  0
   21.5465   21.8609   21.9821 H   0  0  0  0  0  0  0  0  0  0  0  0
   21.8002   19.7511   22.3544 C   0  0  0  0  0  0  0  0  0  0  0  0
   22.1765   19.9552   23.3657 H   0  0  0  0  0  0  0  0  0  0  0  0
   22.6916   19.6913   21.7157 H   0  0  0  0  0  0  0  0  0  0  0  0
   21.0831   18.3742   22.3224 C   0  0  0  0  0  0  0  0  0  0  0  0
   20.6395   18.2035   21.3333 H   0  0  0  0  0  0  0  0  0  0  0  0
   21.8497   17.5978   22.4413 H   0  0  0  0  0  0  0  0  0  0  0  0
   20.0186   18.1374   23.4245 C   0  0  0  0  0  0  0  0  0  0  0  0
   19.8468   17.0521   23.4690 H   0  0  0  0  0  0  0  0  0  0  0  0
   18.6310   18.7835   23.1752 C   0  0  0  0  0  0  0  0  0  0  0  0
   17.9819   18.0258   22.7174 H   0  0  0  0  0  0  0  0  0  0  0  0
   18.1654   19.0154   24.1422 H   0  0  0  0  0  0  0  0  0  0  0  0
   18.5733   20.0476   22.2820 C   0  0  0  0  0  0  0  0  0  0  0  0
   18.6711   19.7627   21.2258 H   0  0  0  0  0  0  0  0  0  0  0  0
   17.5685   20.4809   22.3781 H   0  0  0  0  0  0  0  0  0  0  0  0
   20.5171   18.5471   24.6952 O   0  0  0  0  0  0  0  0  0  0  0  0
   19.8225   18.3381   25.3522 H   0  0  0  0  0  0  0  0  0  0  0  0
  1  2  1  0  0  0  0
  1  3  1  0  0  0  0
  1  4  1  0  0  0  0
  4  5  1  0  0  0  0
  4  6  1  0  0  0  0
  4  7  1  0  0  0  0
  7  8  1  0  0  0  0
  7  9  1  0  0  0  0
  7 10  1  0  0  0  0
 10 11  1  0  0  0  0
 10 12  1  0  0  0  0
 10 13  1  0  0  0  0
 13 14  1  0  0  0  0
 13 15  1  0  0  0  0
 15 16  1  0  0  0  0
 15 17  1  0  0  0  0
  1 18  1  0  0  0  0
 15 18  1  0  0  0  0
 18 19  1  0  0  0  0
 18 20  1  0  0  0  0
 13 21  1  0  0  0  0
 21 22  1  0  0  0  0
M  END
> <VConfSearch Rank>
54

> <Conf_Id>
104

> <Delta U+W>
-1.172

> <U+W>
5.252

> <U>
7.482

> <W>
-2.230

> <W(PB)>
-4.220

> <W(SA)>
1.990

> <Valence>
12.309

> <Coulomb>
-7.084

> <VdW>
2.258

> <VdW6>
-9.770

> <VdW12>
12.028

> <Bond>
0.284

> <Angle>
3.491

> <Pdih>
8.535

> <Idih>
0.000

> <Tether>
0.000

$$$$
VeraChem MOL file


 22 22  0  0  0  0  0  0  0  0999 V2000     
   21.4711   19.7987   21.8438 C   0  0  0  0  0  0  0  0  0  0  0  0
   21.9503   18.9283   22.3121 H   0  0  0  0  0  0  0  0  0  0  0  0
   22.2264   20.2373   21.1775 H   0  0  0  0  0  0  0  0  0  0  0  0
   21.1008   20.8617   22.9032 C   0  0  0  0  0  0  0  0  0  0  0  0
   22.0054   21.4297   23.1606 H   0  0  0  0  0  0  0  0  0  0  0  0
   20.4204   21.5985   22.4566 H   0  0  0  0  0  0  0  0  0  0  0  0
   20.4965   20.3142   24.2211 C   0  0  0  0  0  0  0  0  0  0  0  0
   19.8808   21.1028   24.6754 H   0  0  0  0  0  0  0  0  0  0  0  0
   21.3153   20.1384   24.9321 H   0  0  0  0  0  0  0  0  0  0  0  0
   19.6648   19.0058   24.1330 C   0  0  0  0  0  0  0  0  0  0  0  0
   20.3486   18.1491   24.0760 H   0  0  0  0  0  0  0  0  0  0  0  0
   19.1267   18.8819   25.0817 H   0  0  0  0  0  0  0  0  0  0  0  0
   18.6388   18.8995   22.9814 C   0  0  0  0  0  0  0  0  0  0  0  0
   17.8921   18.1486   23.2771 H   0  0  0  0  0  0  0  0  0  0  0  0
   19.2693   18.4060   21.6595 C   0  0  0  0  0  0  0  0  0  0  0  0
   19.7681   17.4459   21.8448 H   0  0  0  0  0  0  0  0  0  0  0  0
   18.4572   18.1858   20.9544 H   0  0  0  0  0  0  0  0  0  0  0  0
   20.2697   19.3664   20.9698 C   0  0  0  0  0  0  0  0  0  0  0  0
   20.6583   18.8613   20.0751 H   0  0  0  0  0  0  0  0  0  0  0  0
   19.7392   20.2543   20.6002 H   0  0  0  0  0  0  0  0  0  0  0  0
   17.9868   20.1435   22.7780 O   0  0  0  0  0  0  0  0  0  0  0  0
   18.7171   20.7699   22.6035 H   0  0  0  0  0  0  0  0  0  0  0  0
  1  2  1  0  0  0  0
  1  3  1  0  0  0  0
  1  4  1  0  0  0  0
  4  5  1  0  0  0  0
  4  6  1  0  0  0  0
  4  7  1  0  0  0  0
  7  8  1  0  0  0  0
  7  9  1  0  0  0  0
  7 10  1  0  0  0  0
 10 11  1  0  0  0  0
 10 12  1  0  0  0  0
 10 13  1  0  0  0  0
 13 14  1  0  0  0  0
 13 15  1  0  0  0  0
 15 16  1  0  0  0  0
 15 17  1  0  0  0  0
  1 18  1  0  0  0  0
 15 18  1  0  0  0  0
 18 19  1  0  0  0  0
 18 20  1  0  0  0  0
 13 21  1  0  0  0  0
 21 22  1  0  0  0  0
M  END
> <VConfSearch Rank>
55

> <Conf_Id>
99

> <Delta U+W>
-3.852

> <U+W>
2.572

> <U>
3.922

> <W>
-1.350

> <W(PB)>
-3.345

> <W(SA)>
1.995

> <Valence>
12.571

> <Coulomb>
-10.581

> <VdW>
1.932

> <VdW6>
-10.483

> <VdW12>
12.415

> <Bond>
0.268

> <Angle>
3.728

> <Pdih>
8.575

> <Idih>
0.000

> <Tether>
0.000

$$$$
VeraChem MOL file


 22 22  0  0  0  0  0  0  0  0999 V2000     
   21.4676   19.6055   21.7606 C   0  0  0  0  0  0  0  0  0  0  0  0
   22.1327   19.1683   21.0031 H   0  0  0  0  0  0  0  0  0  0  0  0
   21.9611   20.5376   22.0667 H   0  0  0  0  0  0  0  0  0  0  0  0
   21.3965   18.6169   22.9612 C   0  0  0  0  0  0  0  0  0  0  0  0
   22.0310   17.7519   22.7235 H   0  0  0  0  0  0  0  0  0  0  0  0
   21.8554   19.0684   23.8509 H   0  0  0  0  0  0  0  0  0  0  0  0
   19.9857   18.0835   23.3190 C   0  0  0  0  0  0  0  0  0  0  0  0
   20.0984   17.2621   24.0397 H   0  0  0  0  0  0  0  0  0  0  0  0
   19.5320   17.6155   22.4366 H   0  0  0  0  0  0  0  0  0  0  0  0
   19.0004   19.1189   23.9288 C   0  0  0  0  0  0  0  0  0  0  0  0
   17.9775   18.7541   23.7693 H   0  0  0  0  0  0  0  0  0  0  0  0
   19.1382   19.1289   25.0182 H   0  0  0  0  0  0  0  0  0  0  0  0
   19.0805   20.5845   23.4351 C   0  0  0  0  0  0  0  0  0  0  0  0
   18.1785   21.0949   23.8020 H   0  0  0  0  0  0  0  0  0  0  0  0
   19.1206   20.7894   21.9006 C   0  0  0  0  0  0  0  0  0  0  0  0
   18.1119   20.6223   21.5014 H   0  0  0  0  0  0  0  0  0  0  0  0
   19.3343   21.8503   21.7140 H   0  0  0  0  0  0  0  0  0  0  0  0
   20.1188   19.9346   21.0713 C   0  0  0  0  0  0  0  0  0  0  0  0
   19.6317   19.0061   20.7482 H   0  0  0  0  0  0  0  0  0  0  0  0
   20.3293   20.4749   20.1383 H   0  0  0  0  0  0  0  0  0  0  0  0
   20.1967   21.2271   24.0305 O   0  0  0  0  0  0  0  0  0  0  0  0
   20.9671   20.7402   23.6751 H   0  0  0  0  0  0  0  0  0  0  0  0
  1  2  1  0  0  0  0
  1  3  1  0  0  0  0
  1  4  1  0  0  0  0
  4  5  1  0  0  0  0
  4  6  1  0  0  0  0
  4  7  1  0  0  0  0
  7  8  1  0  0  0  0
  7  9  1  0  0  0  0
  7 10  1  0  0  0  0
 10 11  1  0  0  0  0
 10 12  1  0  0  0  0
 10 13  1  0  0  0  0
 13 14  1  0  0  0  0
 13 15  1  0  0  0  0
 15 16  1  0  0  0  0
 15 17  1  0  0  0  0
  1 18  1  0  0  0  0
 15 18  1  0  0  0  0
 18 19  1  0  0  0  0
 18 20  1  0  0  0  0
 13 21  1  0  0  0  0
 21 22  1  0  0  0  0
M  END
> <VConfSearch Rank>
56

> <Conf_Id>
98

> <Delta U+W>
0.930

> <U+W>
7.353

> <U>
8.455

> <W>
-1.102

> <W(PB)>
-3.101

> <W(SA)>
2.000

> <Valence>
15.601

> <Coulomb>
-10.573

> <VdW>
3.427

> <VdW6>
-11.360

> <VdW12>
14.787

> <Bond>
0.471

> <Angle>
5.445

> <Pdih>
9.685

> <Idih>
0.000

> <Tether>
0.000

$$$$
VeraChem MOL file


 22 22  0  0  0  0  0  0  0  0999 V2000     
   21.0916   18.2110   22.4393 C   0  0  0  0  0  0  0  0  0  0  0  0
   21.4895   18.4392   23.4365 H   0  0  0  0  0  0  0  0  0  0  0  0
   21.6333   17.3120   22.1151 H   0  0  0  0  0  0  0  0  0  0  0  0
   21.4275   19.3677   21.4639 C   0  0  0  0  0  0  0  0  0  0  0  0
   22.5208   19.4724   21.4392 H   0  0  0  0  0  0  0  0  0  0  0  0
   21.1325   19.0861   20.4440 H   0  0  0  0  0  0  0  0  0  0  0  0
   20.8167   20.7547   21.8074 C   0  0  0  0  0  0  0  0  0  0  0  0
   19.9598   20.9610   21.1531 H   0  0  0  0  0  0  0  0  0  0  0  0
   21.5567   21.5266   21.5559 H   0  0  0  0  0  0  0  0  0  0  0  0
   20.3921   20.9371   23.2887 C   0  0  0  0  0  0  0  0  0  0  0  0
   21.2331   20.6680   23.9399 H   0  0  0  0  0  0  0  0  0  0  0  0
   20.2263   22.0075   23.4706 H   0  0  0  0  0  0  0  0  0  0  0  0
   19.1267   20.1479   23.7355 C   0  0  0  0  0  0  0  0  0  0  0  0
   19.3497   19.6675   24.6992 H   0  0  0  0  0  0  0  0  0  0  0  0
   18.6284   19.0563   22.7555 C   0  0  0  0  0  0  0  0  0  0  0  0
   17.6716   18.6609   23.1204 H   0  0  0  0  0  0  0  0  0  0  0  0
   18.3977   19.5098   21.7841 H   0  0  0  0  0  0  0  0  0  0  0  0
   19.5896   17.8587   22.5508 C   0  0  0  0  0  0  0  0  0  0  0  0
   19.4647   17.1559   23.3858 H   0  0  0  0  0  0  0  0  0  0  0  0
   19.2794   17.3134   21.6491 H   0  0  0  0  0  0  0  0  0  0  0  0
   18.0611   21.0726   23.9211 O   0  0  0  0  0  0  0  0  0  0  0  0
   17.2966   20.5594   24.2563 H   0  0  0  0  0  0  0  0  0  0  0  0
  1  2  1  0  0  0  0
  1  3  1  0  0  0  0
  1  4  1  0  0  0  0
  4  5  1  0  0  0  0
  4  6  1  0  0  0  0
  4  7  1  0  0  0  0
  7  8  1  0  0  0  0
  7  9  1  0  0  0  0
  7 10  1  0  0  0  0
 10 11  1  0  0  0  0
 10 12  1  0  0  0  0
 10 13  1  0  0  0  0
 13 14  1  0  0  0  0
 13 15  1  0  0  0  0
 15 16  1  0  0  0  0
 15 17  1  0  0  0  0
  1 18  1  0  0  0  0
 15 18  1  0  0  0  0
 18 19  1  0  0  0  0
 18 20  1  0  0  0  0
 13 21  1  0  0  0  0
 21 22  1  0  0  0  0
M  END
> <VConfSearch Rank>
57

> <Conf_Id>
141

> <Delta U+W>
0.000

> <U+W>
6.423

> <U>
8.781

> <W>
-2.358

> <W(PB)>
-4.373

> <W(SA)>
2.015

> <Valence>
13.328

> <Coulomb>
-8.387

> <VdW>
3.840

> <VdW6>
-9.744

> <VdW12>
13.584

> <Bond>
0.436

> <Angle>
3.478

> <Pdih>
9.415

> <Idih>
0.000

> <Tether>
0.000

$$$$
VeraChem MOL file


 22 22  0  0  0  0  0  0  0  0999 V2000     
   20.9326   19.4426   24.1187 C   0  0  0  0  0  0  0  0  0  0  0  0
   20.5463   18.4197   24.2239 H   0  0  0  0  0  0  0  0  0  0  0  0
   21.6452   19.5843   24.9427 H   0  0  0  0  0  0  0  0  0  0  0  0
   19.7999   20.4829   24.2932 C   0  0  0  0  0  0  0  0  0  0  0  0
   19.4686   20.4670   25.3405 H   0  0  0  0  0  0  0  0  0  0  0  0
   20.2018   21.4909   24.1225 H   0  0  0  0  0  0  0  0  0  0  0  0
   18.5619   20.2669   23.3926 C   0  0  0  0  0  0  0  0  0  0  0  0
   17.8667   21.1007   23.5604 H   0  0  0  0  0  0  0  0  0  0  0  0
   18.0286   19.3625   23.7161 H   0  0  0  0  0  0  0  0  0  0  0  0
   18.8640   20.1728   21.8770 C   0  0  0  0  0  0  0  0  0  0  0  0
   17.9085   20.2545   21.3423 H   0  0  0  0  0  0  0  0  0  0  0  0
   19.4713   21.0266   21.5494 H   0  0  0  0  0  0  0  0  0  0  0  0
   19.5455   18.8423   21.4860 C   0  0  0  0  0  0  0  0  0  0  0  0
   19.1688   18.0537   22.1531 H   0  0  0  0  0  0  0  0  0  0  0  0
   21.0884   18.8598   21.5785 C   0  0  0  0  0  0  0  0  0  0  0  0
   21.4308   17.8171   21.5989 H   0  0  0  0  0  0  0  0  0  0  0  0
   21.5026   19.2944   20.6590 H   0  0  0  0  0  0  0  0  0  0  0  0
   21.7025   19.6087   22.7876 C   0  0  0  0  0  0  0  0  0  0  0  0
   22.7314   19.2483   22.9232 H   0  0  0  0  0  0  0  0  0  0  0  0
   21.7944   20.6773   22.5498 H   0  0  0  0  0  0  0  0  0  0  0  0
   19.1879   18.5201   20.1475 O   0  0  0  0  0  0  0  0  0  0  0  0
   18.2113   18.4393   20.1279 H   0  0  0  0  0  0  0  0  0  0  0  0
  1  2  1  0  0  0  0
  1  3  1  0  0  0  0
  1  4  1  0  0  0  0
  4  5  1  0  0  0  0
  4  6  1  0  0  0  0
  4  7  1  0  0  0  0
  7  8  1  0  0  0  0
  7  9  1  0  0  0  0
  7 10  1  0  0  0  0
 10 11  1  0  0  0  0
 10 12  1  0  0  0  0
 10 13  1  0  0  0  0
 13 14  1  0  0  0  0
 13 15  1  0  0  0  0
 15 16  1  0  0  0  0
 15 17  1  0  0  0  0
  1 18  1  0  0  0  0
 15 18  1  0  0  0  0
 18 19  1  0  0  0  0
 18 20  1  0  0  0  0
 13 21  1  0  0  0  0
 21 22  1  0  0  0  0
M  END
> <VConfSearch Rank>
58

> <Conf_Id>
144

> <Delta U+W>
-3.291

> <U+W>
3.132

> <U>
5.411

> <W>
-2.279

> <W(PB)>
-4.300

> <W(SA)>
2.021

> <Valence>
11.909

> <Coulomb>
-8.733

> <VdW>
2.236

> <VdW6>
-8.936

> <VdW12>
11.172

> <Bond>
0.223

> <Angle>
2.457

> <Pdih>
9.228

> <Idih>
0.000

> <Tether>
0.000

$$$$
VeraChem MOL file


 22 22  0  0  0  0  0  0  0  0999 V2000     
   20.0196   17.9009   22.1364 C   0  0  0  0  0  0  0  0  0  0  0  0
   20.0469   16.9778   21.5414 H   0  0  0  0  0  0  0  0  0  0  0  0
   20.1146   17.5891   23.1855 H   0  0  0  0  0  0  0  0  0  0  0  0
   18.6576   18.5902   21.8875 C   0  0  0  0  0  0  0  0  0  0  0  0
   18.7070   19.1718   20.9569 H   0  0  0  0  0  0  0  0  0  0  0  0
   17.8959   17.8186   21.7105 H   0  0  0  0  0  0  0  0  0  0  0  0
   18.1599   19.4957   23.0400 C   0  0  0  0  0  0  0  0  0  0  0  0
   17.6564   18.8728   23.7919 H   0  0  0  0  0  0  0  0  0  0  0  0
   17.3856   20.1645   22.6399 H   0  0  0  0  0  0  0  0  0  0  0  0
   19.2363   20.3448   23.7600 C   0  0  0  0  0  0  0  0  0  0  0  0
   18.7224   21.1539   24.2965 H   0  0  0  0  0  0  0  0  0  0  0  0
   19.7189   19.7341   24.5340 H   0  0  0  0  0  0  0  0  0  0  0  0
   20.3184   20.9457   22.8349 C   0  0  0  0  0  0  0  0  0  0  0  0
   19.8716   21.2018   21.8637 H   0  0  0  0  0  0  0  0  0  0  0  0
   21.5125   19.9882   22.6201 C   0  0  0  0  0  0  0  0  0  0  0  0
   22.3426   20.5550   22.1776 H   0  0  0  0  0  0  0  0  0  0  0  0
   21.8744   19.6299   23.5926 H   0  0  0  0  0  0  0  0  0  0  0  0
   21.2240   18.7727   21.7073 C   0  0  0  0  0  0  0  0  0  0  0  0
   21.0740   19.1197   20.6758 H   0  0  0  0  0  0  0  0  0  0  0  0
   22.1225   18.1412   21.6827 H   0  0  0  0  0  0  0  0  0  0  0  0
   20.8142   22.1326   23.4395 O   0  0  0  0  0  0  0  0  0  0  0  0
   21.2007   21.8648   24.2986 H   0  0  0  0  0  0  0  0  0  0  0  0
  1  2  1  0  0  0  0
  1  3  1  0  0  0  0
  1  4  1  0  0  0  0
  4  5  1  0  0  0  0
  4  6  1  0  0  0  0
  4  7  1  0  0  0  0
  7  8  1  0  0  0  0
  7  9  1  0  0  0  0
  7 10  1  0  0  0  0
 10 11  1  0  0  0  0
 10 12  1  0  0  0  0
 10 13  1  0  0  0  0
 13 14  1  0  0  0  0
 13 15  1  0  0  0  0
 15 16  1  0  0  0  0
 15 17  1  0  0  0  0
  1 18  1  0  0  0  0
 15 18  1  0  0  0  0
 18 19  1  0  0  0  0
 18 20  1  0  0  0  0
 13 21  1  0  0  0  0
 21 22  1  0  0  0  0
M  END
> <VConfSearch Rank>
59

> <Conf_Id>
76

> <Delta U+W>
-3.175

> <U+W>
3.248

> <U>
5.336

> <W>
-2.088

> <W(PB)>
-4.098

> <W(SA)>
2.010

> <Valence>
12.390

> <Coulomb>
-9.270

> <VdW>
2.216

> <VdW6>
-8.967

> <VdW12>
11.183

> <Bond>
0.218

> <Angle>
2.426

> <Pdih>
9.745

> <Idih>
0.000

> <Tether>
0.000

$$$$
VeraChem MOL file


 22 22  0  0  0  0  0  0  0  0999 V2000     
   21.4289   18.5269   21.9100 C   0  0  0  0  0  0  0  0  0  0  0  0
   21.6080   17.4516   22.0462 H   0  0  0  0  0  0  0  0  0  0  0  0
   22.1602   18.8583   21.1602 H   0  0  0  0  0  0  0  0  0  0  0  0
   21.7265   19.2406   23.2504 C   0  0  0  0  0  0  0  0  0  0  0  0
   21.4068   18.6018   24.0848 H   0  0  0  0  0  0  0  0  0  0  0  0
   22.8166   19.3320   23.3516 H   0  0  0  0  0  0  0  0  0  0  0  0
   21.0890   20.6415   23.4014 C   0  0  0  0  0  0  0  0  0  0  0  0
   21.1021   21.1849   22.4468 H   0  0  0  0  0  0  0  0  0  0  0  0
   21.7102   21.2261   24.0933 H   0  0  0  0  0  0  0  0  0  0  0  0
   19.6544   20.5881   23.9856 C   0  0  0  0  0  0  0  0  0  0  0  0
   19.6592   19.9796   24.8989 H   0  0  0  0  0  0  0  0  0  0  0  0
   19.3690   21.5986   24.3062 H   0  0  0  0  0  0  0  0  0  0  0  0
   18.5515   20.0588   23.0408 C   0  0  0  0  0  0  0  0  0  0  0  0
   17.6507   19.9145   23.6546 H   0  0  0  0  0  0  0  0  0  0  0  0
   18.8617   18.7018   22.3605 C   0  0  0  0  0  0  0  0  0  0  0  0
   19.0664   17.9408   23.1245 H   0  0  0  0  0  0  0  0  0  0  0  0
   17.9479   18.3707   21.8505 H   0  0  0  0  0  0  0  0  0  0  0  0
   20.0128   18.7333   21.3216 C   0  0  0  0  0  0  0  0  0  0  0  0
   19.8389   17.9446   20.5772 H   0  0  0  0  0  0  0  0  0  0  0  0
   19.9863   19.6754   20.7583 H   0  0  0  0  0  0  0  0  0  0  0  0
   18.2634   21.0459   22.0556 O   0  0  0  0  0  0  0  0  0  0  0  0
   17.6018   20.6519   21.4511 H   0  0  0  0  0  0  0  0  0  0  0  0
  1  2  1  0  0  0  0
  1  3  1  0  0  0  0
  1  4  1  0  0  0  0
  4  5  1  0  0  0  0
  4  6  1  0  0  0  0
  4  7  1  0  0  0  0
  7  8  1  0  0  0  0
  7  9  1  0  0  0  0
  7 10  1  0  0  0  0
 10 11  1  0  0  0  0
 10 12  1  0  0  0  0
 10 13  1  0  0  0  0
 13 14  1  0  0  0  0
 13 15  1  0  0  0  0
 15 16  1  0  0  0  0
 15 17  1  0  0  0  0
  1 18  1  0  0  0  0
 15 18  1  0  0  0  0
 18 19  1  0  0  0  0
 18 20  1  0  0  0  0
 13 21  1  0  0  0  0
 21 22  1  0  0  0  0
M  END
> <VConfSearch Rank>
60

> <Conf_Id>
95

> <Delta U+W>
-2.289

> <U+W>
4.134

> <U>
6.373

> <W>
-2.240

> <W(PB)>
-4.254

> <W(SA)>
2.015

> <Valence>
12.093

> <Coulomb>
-8.058

> <VdW>
2.339

> <VdW6>
-9.683

> <VdW12>
12.022

> <Bond>
0.268

> <Angle>
3.005

> <Pdih>
8.820

> <Idih>
0.000

> <Tether>
0.000

$$$$
VeraChem MOL file


 22 22  0  0  0  0  0  0  0  0999 V2000     
   21.4773   20.0542   23.8986 C   0  0  0  0  0  0  0  0  0  0  0  0
   22.5444   19.8204   23.7830 H   0  0  0  0  0  0  0  0  0  0  0  0
   21.3972   20.6265   24.8329 H   0  0  0  0  0  0  0  0  0  0  0  0
   20.7048   18.7231   24.0586 C   0  0  0  0  0  0  0  0  0  0  0  0
   21.1683   17.9529   23.4274 H   0  0  0  0  0  0  0  0  0  0  0  0
   20.8389   18.3751   25.0920 H   0  0  0  0  0  0  0  0  0  0  0  0
   19.1920   18.8018   23.7477 C   0  0  0  0  0  0  0  0  0  0  0  0
   18.7681   19.7537   24.0956 H   0  0  0  0  0  0  0  0  0  0  0  0
   18.6852   18.0144   24.3218 H   0  0  0  0  0  0  0  0  0  0  0  0
   18.8773   18.5699   22.2482 C   0  0  0  0  0  0  0  0  0  0  0  0
   19.3858   17.6571   21.9118 H   0  0  0  0  0  0  0  0  0  0  0  0
   17.8048   18.3611   22.1429 H   0  0  0  0  0  0  0  0  0  0  0  0
   19.2456   19.7237   21.2876 C   0  0  0  0  0  0  0  0  0  0  0  0
   19.1252   19.3366   20.2654 H   0  0  0  0  0  0  0  0  0  0  0  0
   20.7008   20.2415   21.4088 C   0  0  0  0  0  0  0  0  0  0  0  0
   21.4065   19.4170   21.2458 H   0  0  0  0  0  0  0  0  0  0  0  0
   20.8647   20.9444   20.5818 H   0  0  0  0  0  0  0  0  0  0  0  0
   21.0323   20.9729   22.7356 C   0  0  0  0  0  0  0  0  0  0  0  0
   21.8386   21.6946   22.5484 H   0  0  0  0  0  0  0  0  0  0  0  0
   20.1719   21.5760   23.0544 H   0  0  0  0  0  0  0  0  0  0  0  0
   18.3274   20.7980   21.4661 O   0  0  0  0  0  0  0  0  0  0  0  0
   17.4293   20.4149   21.3973 H   0  0  0  0  0  0  0  0  0  0  0  0
  1  2  1  0  0  0  0
  1  3  1  0  0  0  0
  1  4  1  0  0  0  0
  4  5  1  0  0  0  0
  4  6  1  0  0  0  0
  4  7  1  0  0  0  0
  7  8  1  0  0  0  0
  7  9  1  0  0  0  0
  7 10  1  0  0  0  0
 10 11  1  0  0  0  0
 10 12  1  0  0  0  0
 10 13  1  0  0  0  0
 13 14  1  0  0  0  0
 13 15  1  0  0  0  0
 15 16  1  0  0  0  0
 15 17  1  0  0  0  0
  1 18  1  0  0  0  0
 15 18  1  0  0  0  0
 18 19  1  0  0  0  0
 18 20  1  0  0  0  0
 13 21  1  0  0  0  0
 21 22  1  0  0  0  0
M  END
> <VConfSearch Rank>
61

> <Conf_Id>
41

> <Delta U+W>
-2.114

> <U+W>
4.310

> <U>
6.598

> <W>
-2.289

> <W(PB)>
-4.294

> <W(SA)>
2.005

> <Valence>
12.082

> <Coulomb>
-7.801

> <VdW>
2.317

> <VdW6>
-9.658

> <VdW12>
11.975

> <Bond>
0.267

> <Angle>
3.051

> <Pdih>
8.764

> <Idih>
0.000

> <Tether>
0.000

$$$$
VeraChem MOL file


 22 22  0  0  0  0  0  0  0  0999 V2000     
   20.8036   20.0197   21.2907 C   0  0  0  0  0  0  0  0  0  0  0  0
   21.0589   20.4796   20.3264 H   0  0  0  0  0  0  0  0  0  0  0  0
   21.7486   19.6590   21.7197 H   0  0  0  0  0  0  0  0  0  0  0  0
   19.8439   18.8408   21.0141 C   0  0  0  0  0  0  0  0  0  0  0  0
   18.8842   19.2270   20.6449 H   0  0  0  0  0  0  0  0  0  0  0  0
   20.2589   18.2348   20.1974 H   0  0  0  0  0  0  0  0  0  0  0  0
   19.5951   17.9149   22.2250 C   0  0  0  0  0  0  0  0  0  0  0  0
   20.5165   17.3658   22.4604 H   0  0  0  0  0  0  0  0  0  0  0  0
   18.8667   17.1507   21.9225 H   0  0  0  0  0  0  0  0  0  0  0  0
   19.0591   18.6235   23.4984 C   0  0  0  0  0  0  0  0  0  0  0  0
   18.1828   19.2350   23.2485 H   0  0  0  0  0  0  0  0  0  0  0  0
   18.6930   17.8465   24.1816 H   0  0  0  0  0  0  0  0  0  0  0  0
   20.0882   19.4754   24.2853 C   0  0  0  0  0  0  0  0  0  0  0  0
   19.6650   19.6344   25.2878 H   0  0  0  0  0  0  0  0  0  0  0  0
   20.3786   20.8866   23.7113 C   0  0  0  0  0  0  0  0  0  0  0  0
   19.7368   21.6050   24.2377 H   0  0  0  0  0  0  0  0  0  0  0  0
   21.4059   21.1739   23.9711 H   0  0  0  0  0  0  0  0  0  0  0  0
   20.1726   21.1041   22.1917 C   0  0  0  0  0  0  0  0  0  0  0  0
   19.1007   21.1945   21.9698 H   0  0  0  0  0  0  0  0  0  0  0  0
   20.6104   22.0769   21.9296 H   0  0  0  0  0  0  0  0  0  0  0  0
   21.3109   18.7605   24.4422 O   0  0  0  0  0  0  0  0  0  0  0  0
   21.9033   19.3272   24.9768 H   0  0  0  0  0  0  0  0  0  0  0  0
  1  2  1  0  0  0  0
  1  3  1  0  0  0  0
  1  4  1  0  0  0  0
  4  5  1  0  0  0  0
  4  6  1  0  0  0  0
  4  7  1  0  0  0  0
  7  8  1  0  0  0  0
  7  9  1  0  0  0  0
  7 10  1  0  0  0  0
 10 11  1  0  0  0  0
 10 12  1  0  0  0  0
 10 13  1  0  0  0  0
 13 14  1  0  0  0  0
 13 15  1  0  0  0  0
 15 16  1  0  0  0  0
 15 17  1  0  0  0  0
  1 18  1  0  0  0  0
 15 18  1  0  0  0  0
 18 19  1  0  0  0  0
 18 20  1  0  0  0  0
 13 21  1  0  0  0  0
 21 22  1  0  0  0  0
M  END
> <VConfSearch Rank>
62

> <Conf_Id>
104

> <Delta U+W>
-1.172

> <U+W>
5.252

> <U>
7.482

> <W>
-2.230

> <W(PB)>
-4.220

> <W(SA)>
1.990

> <Valence>
12.309

> <Coulomb>
-7.084

> <VdW>
2.258

> <VdW6>
-9.770

> <VdW12>
12.028

> <Bond>
0.284

> <Angle>
3.491

> <Pdih>
8.535

> <Idih>
0.000

> <Tether>
0.000

$$$$
VeraChem MOL file


 22 22  0  0  0  0  0  0  0  0999 V2000     
   18.4982   19.7163   23.1570 C   0  0  0  0  0  0  0  0  0  0  0  0
   18.1014   19.4645   22.1642 H   0  0  0  0  0  0  0  0  0  0  0  0
   17.6228   19.9075   23.7927 H   0  0  0  0  0  0  0  0  0  0  0  0
   19.3363   21.0141   23.1039 C   0  0  0  0  0  0  0  0  0  0  0  0
   18.6515   21.8734   23.0996 H   0  0  0  0  0  0  0  0  0  0  0  0
   19.9113   21.1140   24.0338 H   0  0  0  0  0  0  0  0  0  0  0  0
   20.2784   21.1555   21.8815 C   0  0  0  0  0  0  0  0  0  0  0  0
   21.1054   21.8251   22.1554 H   0  0  0  0  0  0  0  0  0  0  0  0
   19.7343   21.6768   21.0820 H   0  0  0  0  0  0  0  0  0  0  0  0
   20.8599   19.8489   21.2765 C   0  0  0  0  0  0  0  0  0  0  0  0
   20.0957   19.3733   20.6482 H   0  0  0  0  0  0  0  0  0  0  0  0
   21.6680   20.1253   20.5869 H   0  0  0  0  0  0  0  0  0  0  0  0
   21.4120   18.7986   22.2673 C   0  0  0  0  0  0  0  0  0  0  0  0
   22.1145   18.1616   21.7108 H   0  0  0  0  0  0  0  0  0  0  0  0
   20.3138   17.8677   22.8290 C   0  0  0  0  0  0  0  0  0  0  0  0
   19.7914   17.3931   21.9882 H   0  0  0  0  0  0  0  0  0  0  0  0
   20.8039   17.0492   23.3723 H   0  0  0  0  0  0  0  0  0  0  0  0
   19.2673   18.5199   23.7662 C   0  0  0  0  0  0  0  0  0  0  0  0
   18.5380   17.7473   24.0453 H   0  0  0  0  0  0  0  0  0  0  0  0
   19.7477   18.8251   24.7057 H   0  0  0  0  0  0  0  0  0  0  0  0
   22.1068   19.4325   23.3302 O   0  0  0  0  0  0  0  0  0  0  0  0
   21.4452   20.0379   23.7201 H   0  0  0  0  0  0  0  0  0  0  0  0
  1  2  1  0  0  0  0
  1  3  1  0  0  0  0
  1  4  1  0  0  0  0
  4  5  1  0  0  0  0
  4  6  1  0  0  0  0
  4  7  1  0  0  0  0
  7  8  1  0  0  0  0
  7  9  1  0  0  0  0
  7 10  1  0  0  0  0
 10 11  1  0  0  0  0
 10 12  1  0  0  0  0
 10 13  1  0  0  0  0
 13 14  1  0  0  0  0
 13 15  1  0  0  0  0
 15 16  1  0  0  0  0
 15 17  1  0  0  0  0
  1 18  1  0  0  0  0
 15 18  1  0  0  0  0
 18 19  1  0  0  0  0
 18 20  1  0  0  0  0
 13 21  1  0  0  0  0
 21 22  1  0  0  0  0
M  END
> <VConfSearch Rank>
63

> <Conf_Id>
99

> <Delta U+W>
-3.852

> <U+W>
2.572

> <U>
3.922

> <W>
-1.350

> <W(PB)>
-3.345

> <W(SA)>
1.995

> <Valence>
12.571

> <Coulomb>
-10.581

> <VdW>
1.932

> <VdW6>
-10.483

> <VdW12>
12.415

> <Bond>
0.268

> <Angle>
3.728

> <Pdih>
8.575

> <Idih>
0.000

> <Tether>
0.000

$$$$
VeraChem MOL file


 22 22  0  0  0  0  0  0  0  0999 V2000     
   18.5322   19.1156   23.0925 C   0  0  0  0  0  0  0  0  0  0  0  0
   17.4799   19.3330   23.3216 H   0  0  0  0  0  0  0  0  0  0  0  0
   18.6152   18.0222   23.1540 H   0  0  0  0  0  0  0  0  0  0  0  0
   19.4081   19.7827   24.1933 C   0  0  0  0  0  0  0  0  0  0  0  0
   18.7349   20.2888   24.8988 H   0  0  0  0  0  0  0  0  0  0  0  0
   19.9170   19.0137   24.7897 H   0  0  0  0  0  0  0  0  0  0  0  0
   20.4433   20.8249   23.6982 C   0  0  0  0  0  0  0  0  0  0  0  0
   20.8489   21.3524   24.5722 H   0  0  0  0  0  0  0  0  0  0  0  0
   19.9351   21.6044   23.1172 H   0  0  0  0  0  0  0  0  0  0  0  0
   21.6416   20.2616   22.8848 C   0  0  0  0  0  0  0  0  0  0  0  0
   22.0583   21.0765   22.2790 H   0  0  0  0  0  0  0  0  0  0  0  0
   22.4389   19.9859   23.5879 H   0  0  0  0  0  0  0  0  0  0  0  0
   21.3918   19.0433   21.9620 C   0  0  0  0  0  0  0  0  0  0  0  0
   22.2772   18.9437   21.3179 H   0  0  0  0  0  0  0  0  0  0  0  0
   20.1619   19.1341   21.0254 C   0  0  0  0  0  0  0  0  0  0  0  0
   20.4038   19.8156   20.1996 H   0  0  0  0  0  0  0  0  0  0  0  0
   20.0282   18.1490   20.5587 H   0  0  0  0  0  0  0  0  0  0  0  0
   18.8035   19.5756   21.6374 C   0  0  0  0  0  0  0  0  0  0  0  0
   18.7035   20.6660   21.5690 H   0  0  0  0  0  0  0  0  0  0  0  0
   18.0027   19.1843   20.9953 H   0  0  0  0  0  0  0  0  0  0  0  0
   21.3082   17.8626   22.7444 O   0  0  0  0  0  0  0  0  0  0  0  0
   20.5115   17.9998   23.2951 H   0  0  0  0  0  0  0  0  0  0  0  0
  1  2  1  0  0  0  0
  1  3  1  0  0  0  0
  1  4  1  0  0  0  0
  4  5  1  0  0  0  0
  4  6  1  0  0  0  0
  4  7  1  0  0  0  0
  7  8  1  0  0  0  0
  7  9  1  0  0  0  0
  7 10  1  0  0  0  0
 10 11  1  0  0  0  0
 10 12  1  0  0  0  0
 10 13  1  0  0  0  0
 13 14  1  0  0  0  0
 13 15  1  0  0  0  0
 15 16  1  0  0  0  0
 15 17  1  0  0  0  0
  1 18  1  0  0  0  0
 15 18  1  0  0  0  0
 18 19  1  0  0  0  0
 18 20  1  0  0  0  0
 13 21  1  0  0  0  0
 21 22  1  0  0  0  0
M  END
> <VConfSearch Rank>
64

> <Conf_Id>
98

> <Delta U+W>
0.930

> <U+W>
7.353

> <U>
8.455

> <W>
-1.102

> <W(PB)>
-3.101

> <W(SA)>
2.000

> <Valence>
15.601

> <Coulomb>
-10.573

> <VdW>
3.427

> <VdW6>
-11.360

> <VdW12>
14.787

> <Bond>
0.471

> <Angle>
5.445

> <Pdih>
9.685

> <Idih>
0.000

> <Tether>
0.000

$$$$
VeraChem MOL file


 22 22  0  0  0  0  0  0  0  0999 V2000     
   19.4843   17.9453   22.2700 C   0  0  0  0  0  0  0  0  0  0  0  0
   20.5429   17.6596   22.2190 H   0  0  0  0  0  0  0  0  0  0  0  0
   18.9289   17.0135   22.0969 H   0  0  0  0  0  0  0  0  0  0  0  0
   19.1535   18.9367   21.1255 C   0  0  0  0  0  0  0  0  0  0  0  0
   19.3821   18.4337   20.1760 H   0  0  0  0  0  0  0  0  0  0  0  0
   18.0722   19.1294   21.1071 H   0  0  0  0  0  0  0  0  0  0  0  0
   19.9134   20.2919   21.1499 C   0  0  0  0  0  0  0  0  0  0  0  0
   19.2519   21.0878   21.5158 H   0  0  0  0  0  0  0  0  0  0  0  0
   20.1467   20.5724   20.1138 H   0  0  0  0  0  0  0  0  0  0  0  0
   21.2285   20.2930   21.9734 C   0  0  0  0  0  0  0  0  0  0  0  0
   21.8585   19.4564   21.6466 H   0  0  0  0  0  0  0  0  0  0  0  0
   21.7989   21.1943   21.7110 H   0  0  0  0  0  0  0  0  0  0  0  0
   21.0625   20.2342   23.5202 C   0  0  0  0  0  0  0  0  0  0  0  0
   21.7669   19.4844   23.9084 H   0  0  0  0  0  0  0  0  0  0  0  0
   19.6455   19.8785   24.0360 C   0  0  0  0  0  0  0  0  0  0  0  0
   19.6267   19.9885   25.1280 H   0  0  0  0  0  0  0  0  0  0  0  0
   18.9217   20.6130   23.6629 H   0  0  0  0  0  0  0  0  0  0  0  0
   19.1537   18.4497   23.6944 C   0  0  0  0  0  0  0  0  0  0  0  0
   19.5860   17.7431   24.4159 H   0  0  0  0  0  0  0  0  0  0  0  0
   18.0667   18.4097   23.8476 H   0  0  0  0  0  0  0  0  0  0  0  0
   21.4053   21.5060   24.0589 O   0  0  0  0  0  0  0  0  0  0  0  0
   21.3482   21.4248   25.0338 H   0  0  0  0  0  0  0  0  0  0  0  0
  1  2  1  0  0  0  0
  1  3  1  0  0  0  0
  1  4  1  0  0  0  0
  4  5  1  0  0  0  0
  4  6  1  0  0  0  0
  4  7  1  0  0  0  0
  7  8  1  0  0  0  0
  7  9  1  0  0  0  0
  7 10  1  0  0  0  0
 10 11  1  0  0  0  0
 10 12  1  0  0  0  0
 10 13  1  0  0  0  0
 13 14  1  0  0  0  0
 13 15  1  0  0  0  0
 15 16  1  0  0  0  0
 15 17  1  0  0  0  0
  1 18  1  0  0  0  0
 15 18  1  0  0  0  0
 18 19  1  0  0  0  0
 18 20  1  0  0  0  0
 13 21  1  0  0  0  0
 21 22  1  0  0  0  0
M  END
> <VConfSearch Rank>
65

> <Conf_Id>
141

> <Delta U+W>
0.000

> <U+W>
6.423

> <U>
8.781

> <W>
-2.358

> <W(PB)>
-4.373

> <W(SA)>
2.015

> <Valence>
13.328

> <Coulomb>
-8.387

> <VdW>
3.840

> <VdW6>
-9.744

> <VdW12>
13.584

> <Bond>
0.436

> <Angle>
3.478

> <Pdih>
9.415

> <Idih>
0.000

> <Tether>
0.000

$$$$
VeraChem MOL file


 22 22  0  0  0  0  0  0  0  0999 V2000     
   20.9073   20.4610   21.4405 C   0  0  0  0  0  0  0  0  0  0  0  0
   21.5693   19.5876   21.3659 H   0  0  0  0  0  0  0  0  0  0  0  0
   21.2622   21.1764   20.6861 H   0  0  0  0  0  0  0  0  0  0  0  0
   21.0370   21.1372   22.8267 C   0  0  0  0  0  0  0  0  0  0  0  0
   22.0330   21.5947   22.9010 H   0  0  0  0  0  0  0  0  0  0  0  0
   20.3213   21.9678   22.8950 H   0  0  0  0  0  0  0  0  0  0  0  0
   20.8466   20.1971   24.0392 C   0  0  0  0  0  0  0  0  0  0  0  0
   20.8941   20.8039   24.9537 H   0  0  0  0  0  0  0  0  0  0  0  0
   21.6941   19.5005   24.0975 H   0  0  0  0  0  0  0  0  0  0  0  0
   19.5207   19.3976   24.0451 C   0  0  0  0  0  0  0  0  0  0  0  0
   19.4017   18.9594   25.0448 H   0  0  0  0  0  0  0  0  0  0  0  0
   18.6635   20.0681   23.9015 H   0  0  0  0  0  0  0  0  0  0  0  0
   19.5030   18.2640   22.9951 C   0  0  0  0  0  0  0  0  0  0  0  0
   20.5272   17.8790   22.8871 H   0  0  0  0  0  0  0  0  0  0  0  0
   18.9953   18.6903   21.5988 C   0  0  0  0  0  0  0  0  0  0  0  0
   19.3231   17.9280   20.8803 H   0  0  0  0  0  0  0  0  0  0  0  0
   17.8975   18.6621   21.5871 H   0  0  0  0  0  0  0  0  0  0  0  0
   19.4495   20.0813   21.0901 C   0  0  0  0  0  0  0  0  0  0  0  0
   19.3286   20.0995   19.9984 H   0  0  0  0  0  0  0  0  0  0  0  0
   18.7687   20.8532   21.4741 H   0  0  0  0  0  0  0  0  0  0  0  0
   18.6662   17.2151   23.4671 O   0  0  0  0  0  0  0  0  0  0  0  0
   19.0492   16.9086   24.3157 H   0  0  0  0  0  0  0  0  0  0  0  0
  1  2  1  0  0  0  0
  1  3  1  0  0  0  0
  1  4  1  0  0  0  0
  4  5  1  0  0  0  0
  4  6  1  0  0  0  0
  4  7  1  0  0  0  0
  7  8  1  0  0  0  0
  7  9  1  0  0  0  0
  7 10  1  0  0  0  0
 10 11  1  0  0  0  0
 10 12  1  0  0  0  0
 10 13  1  0  0  0  0
 13 14  1  0  0  0  0
 13 15  1  0  0  0  0
 15 16  1  0  0  0  0
 15 17  1  0  0  0  0
  1 18  1  0  0  0  0
 15 18  1  0  0  0  0
 18 19  1  0  0  0  0
 18 20  1  0  0  0  0
 13 21  1  0  0  0  0
 21 22  1  0  0  0  0
M  END
> <VConfSearch Rank>
66

> <Conf_Id>
144

> <Delta U+W>
-3.291

> <U+W>
3.132

> <U>
5.411

> <W>
-2.279

> <W(PB)>
-4.300

> <W(SA)>
2.021

> <Valence>
11.909

> <Coulomb>
-8.733

> <VdW>
2.236

> <VdW6>
-8.936

> <VdW12>
11.172

> <Bond>
0.223

> <Angle>
2.457

> <Pdih>
9.228

> <Idih>
0.000

> <Tether>
0.000

$$$$
VeraChem MOL file


 22 22  0  0  0  0  0  0  0  0999 V2000     
   18.6030   18.7829   23.4426 C   0  0  0  0  0  0  0  0  0  0  0  0
   17.6113   18.3880   23.7024 H   0  0  0  0  0  0  0  0  0  0  0  0
   19.2711   18.4911   24.2644 H   0  0  0  0  0  0  0  0  0  0  0  0
   18.4934   20.3223   23.3415 C   0  0  0  0  0  0  0  0  0  0  0  0
   18.1063   20.5969   22.3509 H   0  0  0  0  0  0  0  0  0  0  0  0
   17.7383   20.6726   24.0584 H   0  0  0  0  0  0  0  0  0  0  0  0
   19.8068   21.0934   23.6179 C   0  0  0  0  0  0  0  0  0  0  0  0
   19.9265   21.2182   24.7028 H   0  0  0  0  0  0  0  0  0  0  0  0
   19.6999   22.1083   23.2111 H   0  0  0  0  0  0  0  0  0  0  0  0
   21.1052   20.4606   23.0593 C   0  0  0  0  0  0  0  0  0  0  0  0
   21.8748   21.2437   23.0302 H   0  0  0  0  0  0  0  0  0  0  0  0
   21.4732   19.7078   23.7683 H   0  0  0  0  0  0  0  0  0  0  0  0
   20.9680   19.8203   21.6598 C   0  0  0  0  0  0  0  0  0  0  0  0
   20.2494   20.3967   21.0599 H   0  0  0  0  0  0  0  0  0  0  0  0
   20.5207   18.3422   21.7257 C   0  0  0  0  0  0  0  0  0  0  0  0
   20.6865   17.8805   20.7431 H   0  0  0  0  0  0  0  0  0  0  0  0
   21.1624   17.7963   22.4294 H   0  0  0  0  0  0  0  0  0  0  0  0
   19.0394   18.1209   22.1136 C   0  0  0  0  0  0  0  0  0  0  0  0
   18.3929   18.4762   21.2995 H   0  0  0  0  0  0  0  0  0  0  0  0
   18.8618   17.0392   22.1862 H   0  0  0  0  0  0  0  0  0  0  0  0
   22.2375   19.8639   21.0221 O   0  0  0  0  0  0  0  0  0  0  0  0
   22.8475   19.3435   21.5844 H   0  0  0  0  0  0  0  0  0  0  0  0
  1  2  1  0  0  0  0
  1  3  1  0  0  0  0
  1  4  1  0  0  0  0
  4  5  1  0  0  0  0
  4  6  1  0  0  0  0
  4  7  1  0  0  0  0
  7  8  1  0  0  0  0
  7  9  1  0  0  0  0
  7 10  1  0  0  0  0
 10 11  1  0  0  0  0
 10 12  1  0  0  0  0
 10 13  1  0  0  0  0
 13 14  1  0  0  0  0
 13 15  1  0  0  0  0
 15 16  1  0  0  0  0
 15 17  1  0  0  0  0
  1 18  1  0  0  0  0
 15 18  1  0  0  0  0
 18 19  1  0  0  0  0
 18 20  1  0  0  0  0
 13 21  1  0  0  0  0
 21 22  1  0  0  0  0
M  END
> <VConfSearch Rank>
67

> <Conf_Id>
76

> <Delta U+W>
-3.175

> <U+W>
3.248

> <U>
5.336

> <W>
-2.088

> <W(PB)>
-4.098

> <W(SA)>
2.010

> <Valence>
12.390

> <Coulomb>
-9.270

> <VdW>
2.216

> <VdW6>
-8.967

> <VdW12>
11.183

> <Bond>
0.218

> <Angle>
2.426

> <Pdih>
9.745

> <Idih>
0.000

> <Tether>
0.000

$$$$
VeraChem MOL file


 22 22  0  0  0  0  0  0  0  0999 V2000     
   18.6753   19.4762   23.9403 C   0  0  0  0  0  0  0  0  0  0  0  0
   17.8893   18.7120   24.0109 H   0  0  0  0  0  0  0  0  0  0  0  0
   18.5261   20.1380   24.8043 H   0  0  0  0  0  0  0  0  0  0  0  0
   18.4467   20.2871   22.6422 C   0  0  0  0  0  0  0  0  0  0  0  0
   18.0804   19.6181   21.8518 H   0  0  0  0  0  0  0  0  0  0  0  0
   17.6303   20.9988   22.8260 H   0  0  0  0  0  0  0  0  0  0  0  0
   19.6824   21.0621   22.1287 C   0  0  0  0  0  0  0  0  0  0  0  0
   20.2665   21.4702   22.9648 H   0  0  0  0  0  0  0  0  0  0  0  0
   19.3273   21.9279   21.5538 H   0  0  0  0  0  0  0  0  0  0  0  0
   20.5789   20.2106   21.1940 C   0  0  0  0  0  0  0  0  0  0  0  0
   19.9567   19.7581   20.4113 H   0  0  0  0  0  0  0  0  0  0  0  0
   21.2726   20.8801   20.6688 H   0  0  0  0  0  0  0  0  0  0  0  0
   21.4115   19.0991   21.8725 C   0  0  0  0  0  0  0  0  0  0  0  0
   21.8375   18.4850   21.0659 H   0  0  0  0  0  0  0  0  0  0  0  0
   20.6112   18.1468   22.7962 C   0  0  0  0  0  0  0  0  0  0  0  0
   19.7941   17.6800   22.2310 H   0  0  0  0  0  0  0  0  0  0  0  0
   21.2796   17.3248   23.0832 H   0  0  0  0  0  0  0  0  0  0  0  0
   20.0569   18.7961   24.0909 C   0  0  0  0  0  0  0  0  0  0  0  0
   19.9689   18.0219   24.8650 H   0  0  0  0  0  0  0  0  0  0  0  0
   20.7789   19.5223   24.4871 H   0  0  0  0  0  0  0  0  0  0  0  0
   22.4868   19.6917   22.5939 O   0  0  0  0  0  0  0  0  0  0  0  0
   22.9544   18.9610   23.0477 H   0  0  0  0  0  0  0  0  0  0  0  0
  1  2  1  0  0  0  0
  1  3  1  0  0  0  0
  1  4  1  0  0  0  0
  4  5  1  0  0  0  0
  4  6  1  0  0  0  0
  4  7  1  0  0  0  0
  7  8  1  0  0  0  0
  7  9  1  0  0  0  0
  7 10  1  0  0  0  0
 10 11  1  0  0  0  0
 10 12  1  0  0  0  0
 10 13  1  0  0  0  0
 13 14  1  0  0  0  0
 13 15  1  0  0  0  0
 15 16  1  0  0  0  0
 15 17  1  0  0  0  0
  1 18  1  0  0  0  0
 15 18  1  0  0  0  0
 18 19  1  0  0  0  0
 18 20  1  0  0  0  0
 13 21  1  0  0  0  0
 21 22  1  0  0  0  0
M  END
> <VConfSearch Rank>
68

> <Conf_Id>
95

> <Delta U+W>
-2.289

> <U+W>
4.134

> <U>
6.373

> <W>
-2.240

> <W(PB)>
-4.254

> <W(SA)>
2.015

> <Valence>
12.093

> <Coulomb>
-8.058

> <VdW>
2.339

> <VdW6>
-9.683

> <VdW12>
12.022

> <Bond>
0.268

> <Angle>
3.005

> <Pdih>
8.820

> <Idih>
0.000

> <Tether>
0.000

$$$$
VeraChem MOL file


 22 22  0  0  0  0  0  0  0  0999 V2000     
   18.4834   19.2101   23.7268 C   0  0  0  0  0  0  0  0  0  0  0  0
   17.4615   19.0431   23.3600 H   0  0  0  0  0  0  0  0  0  0  0  0
   18.4406   19.0479   24.8124 H   0  0  0  0  0  0  0  0  0  0  0  0
   18.8599   20.6862   23.4554 C   0  0  0  0  0  0  0  0  0  0  0  0
   18.4179   21.0073   22.5024 H   0  0  0  0  0  0  0  0  0  0  0  0
   18.3797   21.3059   24.2249 H   0  0  0  0  0  0  0  0  0  0  0  0
   20.3773   20.9844   23.4454 C   0  0  0  0  0  0  0  0  0  0  0  0
   20.8992   20.3931   24.2101 H   0  0  0  0  0  0  0  0  0  0  0  0
   20.5190   22.0372   23.7247 H   0  0  0  0  0  0  0  0  0  0  0  0
   21.0182   20.7757   22.0501 C   0  0  0  0  0  0  0  0  0  0  0  0
   20.4229   21.3097   21.2982 H   0  0  0  0  0  0  0  0  0  0  0  0
   22.0028   21.2608   22.0399 H   0  0  0  0  0  0  0  0  0  0  0  0
   21.1929   19.3095   21.5923 C   0  0  0  0  0  0  0  0  0  0  0  0
   21.4892   19.3405   20.5338 H   0  0  0  0  0  0  0  0  0  0  0  0
   19.9164   18.4361   21.6811 C   0  0  0  0  0  0  0  0  0  0  0  0
   19.1104   18.8894   21.0900 H   0  0  0  0  0  0  0  0  0  0  0  0
   20.1437   17.4791   21.1939 H   0  0  0  0  0  0  0  0  0  0  0  0
   19.4199   18.1381   23.1199 C   0  0  0  0  0  0  0  0  0  0  0  0
   18.8797   17.1819   23.1155 H   0  0  0  0  0  0  0  0  0  0  0  0
   20.2785   17.9826   23.7863 H   0  0  0  0  0  0  0  0  0  0  0  0
   22.2507   18.7068   22.3316 O   0  0  0  0  0  0  0  0  0  0  0  0
   23.0225   19.3042   22.2566 H   0  0  0  0  0  0  0  0  0  0  0  0
  1  2  1  0  0  0  0
  1  3  1  0  0  0  0
  1  4  1  0  0  0  0
  4  5  1  0  0  0  0
  4  6  1  0  0  0  0
  4  7  1  0  0  0  0
  7  8  1  0  0  0  0
  7  9  1  0  0  0  0
  7 10  1  0  0  0  0
 10 11  1  0  0  0  0
 10 12  1  0  0  0  0
 10 13  1  0  0  0  0
 13 14  1  0  0  0  0
 13 15  1  0  0  0  0
 15 16  1  0  0  0  0
 15 17  1  0  0  0  0
  1 18  1  0  0  0  0
 15 18  1  0  0  0  0
 18 19  1  0  0  0  0
 18 20  1  0  0  0  0
 13 21  1  0  0  0  0
 21 22  1  0  0  0  0
M  END
> <VConfSearch Rank>
69

> <Conf_Id>
41

> <Delta U+W>
-2.114

> <U+W>
4.310

> <U>
6.598

> <W>
-2.289

> <W(PB)>
-4.294

> <W(SA)>
2.005

> <Valence>
12.082

> <Coulomb>
-7.801

> <VdW>
2.317

> <VdW6>
-9.658

> <VdW12>
11.975

> <Bond>
0.267

> <Angle>
3.051

> <Pdih>
8.764

> <Idih>
0.000

> <Tether>
0.000

$$$$
VeraChem MOL file


 22 22  0  0  0  0  0  0  0  0999 V2000     
   20.8305   20.9635   22.2799 C   0  0  0  0  0  0  0  0  0  0  0  0
   21.2891   21.9611   22.2460 H   0  0  0  0  0  0  0  0  0  0  0  0
   21.1862   20.4306   21.3874 H   0  0  0  0  0  0  0  0  0  0  0  0
   19.2968   21.1452   22.2329 C   0  0  0  0  0  0  0  0  0  0  0  0
   18.9547   21.6234   23.1607 H   0  0  0  0  0  0  0  0  0  0  0  0
   19.0514   21.8470   21.4243 H   0  0  0  0  0  0  0  0  0  0  0  0
   18.5006   19.8424   22.0007 C   0  0  0  0  0  0  0  0  0  0  0  0
   18.6856   19.4778   20.9815 H   0  0  0  0  0  0  0  0  0  0  0  0
   17.4310   20.0889   22.0350 H   0  0  0  0  0  0  0  0  0  0  0  0
   18.7739   18.7101   23.0276 C   0  0  0  0  0  0  0  0  0  0  0  0
   18.6648   19.0942   24.0497 H   0  0  0  0  0  0  0  0  0  0  0  0
   17.9851   17.9563   22.9085 H   0  0  0  0  0  0  0  0  0  0  0  0
   20.1321   17.9763   22.8835 C   0  0  0  0  0  0  0  0  0  0  0  0
   20.0415   17.0328   23.4411 H   0  0  0  0  0  0  0  0  0  0  0  0
   21.3639   18.7099   23.4750 C   0  0  0  0  0  0  0  0  0  0  0  0
   21.5327   18.3248   24.4890 H   0  0  0  0  0  0  0  0  0  0  0  0
   22.2580   18.4238   22.9057 H   0  0  0  0  0  0  0  0  0  0  0  0
   21.3084   20.2550   23.5666 C   0  0  0  0  0  0  0  0  0  0  0  0
   20.6767   20.5560   24.4133 H   0  0  0  0  0  0  0  0  0  0  0  0
   22.3178   20.6132   23.8106 H   0  0  0  0  0  0  0  0  0  0  0  0
   20.3790   17.6482   21.5188 O   0  0  0  0  0  0  0  0  0  0  0  0
   21.2240   17.1550   21.4950 H   0  0  0  0  0  0  0  0  0  0  0  0
  1  2  1  0  0  0  0
  1  3  1  0  0  0  0
  1  4  1  0  0  0  0
  4  5  1  0  0  0  0
  4  6  1  0  0  0  0
  4  7  1  0  0  0  0
  7  8  1  0  0  0  0
  7  9  1  0  0  0  0
  7 10  1  0  0  0  0
 10 11  1  0  0  0  0
 10 12  1  0  0  0  0
 10 13  1  0  0  0  0
 13 14  1  0  0  0  0
 13 15  1  0  0  0  0
 15 16  1  0  0  0  0
 15 17  1  0  0  0  0
  1 18  1  0  0  0  0
 15 18  1  0  0  0  0
 18 19  1  0  0  0  0
 18 20  1  0  0  0  0
 13 21  1  0  0  0  0
 21 22  1  0  0  0  0
M  END
> <VConfSearch Rank>
70

> <Conf_Id>
104

> <Delta U+W>
-1.172

> <U+W>
5.252

> <U>
7.482

> <W>
-2.230

> <W(PB)>
-4.220

> <W(SA)>
1.990

> <Valence>
12.309

> <Coulomb>
-7.084

> <VdW>
2.258

> <VdW6>
-9.770

> <VdW12>
12.028

> <Bond>
0.284

> <Angle>
3.491

> <Pdih>
8.535

> <Idih>
0.000

> <Tether>
0.000

$$$$
VeraChem MOL file


 22 22  0  0  0  0  0  0  0  0999 V2000     
   20.1676   20.3822   24.1055 C   0  0  0  0  0  0  0  0  0  0  0  0
   21.0809   20.9190   23.8152 H   0  0  0  0  0  0  0  0  0  0  0  0
   19.9468   20.6963   25.1349 H   0  0  0  0  0  0  0  0  0  0  0  0
   20.4052   18.8548   24.1180 C   0  0  0  0  0  0  0  0  0  0  0  0
   20.9233   18.5885   25.0497 H   0  0  0  0  0  0  0  0  0  0  0  0
   19.4388   18.3369   24.1726 H   0  0  0  0  0  0  0  0  0  0  0  0
   21.2394   18.2954   22.9378 C   0  0  0  0  0  0  0  0  0  0  0  0
   20.9723   17.2394   22.7930 H   0  0  0  0  0  0  0  0  0  0  0  0
   22.2978   18.2902   23.2322 H   0  0  0  0  0  0  0  0  0  0  0  0
   21.1358   19.0381   21.5781 C   0  0  0  0  0  0  0  0  0  0  0  0
   21.7640   19.9377   21.6119 H   0  0  0  0  0  0  0  0  0  0  0  0
   21.5885   18.4000   20.8081 H   0  0  0  0  0  0  0  0  0  0  0  0
   19.7212   19.4382   21.0999 C   0  0  0  0  0  0  0  0  0  0  0  0
   19.7705   19.5733   20.0099 H   0  0  0  0  0  0  0  0  0  0  0  0
   19.2439   20.7819   21.6955 C   0  0  0  0  0  0  0  0  0  0  0  0
   19.9844   21.5558   21.4551 H   0  0  0  0  0  0  0  0  0  0  0  0
   18.3250   21.0801   21.1741 H   0  0  0  0  0  0  0  0  0  0  0  0
   18.9712   20.8046   23.2200 C   0  0  0  0  0  0  0  0  0  0  0  0
   18.6833   21.8284   23.4948 H   0  0  0  0  0  0  0  0  0  0  0  0
   18.0976   20.1804   23.4514 H   0  0  0  0  0  0  0  0  0  0  0  0
   18.7862   18.4123   21.3957 O   0  0  0  0  0  0  0  0  0  0  0  0
   18.8602   18.2939   22.3636 H   0  0  0  0  0  0  0  0  0  0  0  0
  1  2  1  0  0  0  0
  1  3  1  0  0  0  0
  1  4  1  0  0  0  0
  4  5  1  0  0  0  0
  4  6  1  0  0  0  0
  4  7  1  0  0  0  0
  7  8  1  0  0  0  0
  7  9  1  0  0  0  0
  7 10  1  0  0  0  0
 10 11  1  0  0  0  0
 10 12  1  0  0  0  0
 10 13  1  0  0  0  0
 13 14  1  0  0  0  0
 13 15  1  0  0  0  0
 15 16  1  0  0  0  0
 15 17  1  0  0  0  0
  1 18  1  0  0  0  0
 15 18  1  0  0  0  0
 18 19  1  0  0  0  0
 18 20  1  0  0  0  0
 13 21  1  0  0  0  0
 21 22  1  0  0  0  0
M  END
> <VConfSearch Rank>
71

> <Conf_Id>
99

> <Delta U+W>
-3.852

> <U+W>
2.572

> <U>
3.922

> <W>
-1.350

> <W(PB)>
-3.345

> <W(SA)>
1.995

> <Valence>
12.571

> <Coulomb>
-10.581

> <VdW>
1.932

> <VdW6>
-10.483

> <VdW12>
12.415

> <Bond>
0.268

> <Angle>
3.728

> <Pdih>
8.575

> <Idih>
0.000

> <Tether>
0.000

$$$$
VeraChem MOL file


 22 22  0  0  0  0  0  0  0  0999 V2000     
   21.3115   18.4824   22.5438 C   0  0  0  0  0  0  0  0  0  0  0  0
   21.9654   17.7057   22.9640 H   0  0  0  0  0  0  0  0  0  0  0  0
   21.6131   18.5672   21.4912 H   0  0  0  0  0  0  0  0  0  0  0  0
   21.6073   19.8134   23.2954 C   0  0  0  0  0  0  0  0  0  0  0  0
   22.3892   19.6128   24.0408 H   0  0  0  0  0  0  0  0  0  0  0  0
   22.0524   20.5452   22.6081 H   0  0  0  0  0  0  0  0  0  0  0  0
   20.4060   20.4580   24.0330 C   0  0  0  0  0  0  0  0  0  0  0  0
   20.7854   21.2671   24.6718 H   0  0  0  0  0  0  0  0  0  0  0  0
   19.9704   19.7349   24.7337 H   0  0  0  0  0  0  0  0  0  0  0  0
   19.2895   21.0502   23.1288 C   0  0  0  0  0  0  0  0  0  0  0  0
   18.3647   21.1051   23.7173 H   0  0  0  0  0  0  0  0  0  0  0  0
   19.5477   22.0921   22.8964 H   0  0  0  0  0  0  0  0  0  0  0  0
   18.9769   20.3375   21.7899 C   0  0  0  0  0  0  0  0  0  0  0  0
   18.0318   20.7579   21.4174 H   0  0  0  0  0  0  0  0  0  0  0  0
   18.7900   18.8018   21.8586 C   0  0  0  0  0  0  0  0  0  0  0  0
   17.8060   18.5909   22.2968 H   0  0  0  0  0  0  0  0  0  0  0  0
   18.7342   18.4289   20.8272 H   0  0  0  0  0  0  0  0  0  0  0  0
   19.8522   17.9662   22.6256 C   0  0  0  0  0  0  0  0  0  0  0  0
   19.5542   17.8632   23.6764 H   0  0  0  0  0  0  0  0  0  0  0  0
   19.8243   16.9421   22.2292 H   0  0  0  0  0  0  0  0  0  0  0  0
   19.9799   20.6529   20.8371 O   0  0  0  0  0  0  0  0  0  0  0  0
   20.7937   20.2604   21.2119 H   0  0  0  0  0  0  0  0  0  0  0  0
  1  2  1  0  0  0  0
  1  3  1  0  0  0  0
  1  4  1  0  0  0  0
  4  5  1  0  0  0  0
  4  6  1  0  0  0  0
  4  7  1  0  0  0  0
  7  8  1  0  0  0  0
  7  9  1  0  0  0  0
  7 10  1  0  0  0  0
 10 11  1  0  0  0  0
 10 12  1  0  0  0  0
 10 13  1  0  0  0  0
 13 14  1  0  0  0  0
 13 15  1  0  0  0  0
 15 16  1  0  0  0  0
 15 17  1  0  0  0  0
  1 18  1  0  0  0  0
 15 18  1  0  0  0  0
 18 19  1  0  0  0  0
 18 20  1  0  0  0  0
 13 21  1  0  0  0  0
 21 22  1  0  0  0  0
M  END
> <VConfSearch Rank>
72

> <Conf_Id>
98

> <Delta U+W>
0.930

> <U+W>
7.353

> <U>
8.455

> <W>
-1.102

> <W(PB)>
-3.101

> <W(SA)>
2.000

> <Valence>
15.601

> <Coulomb>
-10.573

> <VdW>
3.427

> <VdW6>
-11.360

> <VdW12>
14.787

> <Bond>
0.471

> <Angle>
5.445

> <Pdih>
9.685

> <Idih>
0.000

> <Tether>
0.000

$$$$
VeraChem MOL file


 22 22  0  0  0  0  0  0  0  0999 V2000     
   20.1337   19.4560   24.3680 C   0  0  0  0  0  0  0  0  0  0  0  0
   21.1230   19.9209   24.2691 H   0  0  0  0  0  0  0  0  0  0  0  0
   19.9715   19.3582   25.4501 H   0  0  0  0  0  0  0  0  0  0  0  0
   20.1562   18.0381   23.7425 C   0  0  0  0  0  0  0  0  0  0  0  0
   20.9220   17.4552   24.2722 H   0  0  0  0  0  0  0  0  0  0  0  0
   19.2031   17.5313   23.9459 H   0  0  0  0  0  0  0  0  0  0  0  0
   20.4593   17.9640   22.2202 C   0  0  0  0  0  0  0  0  0  0  0  0
   19.5329   17.7807   21.6605 H   0  0  0  0  0  0  0  0  0  0  0  0
   21.0802   17.0764   22.0375 H   0  0  0  0  0  0  0  0  0  0  0  0
   21.1815   19.2054   21.6328 C   0  0  0  0  0  0  0  0  0  0  0  0
   22.0724   19.4219   22.2353 H   0  0  0  0  0  0  0  0  0  0  0  0
   21.5702   18.9406   20.6402 H   0  0  0  0  0  0  0  0  0  0  0  0
   20.3215   20.4973   21.5091 C   0  0  0  0  0  0  0  0  0  0  0  0
   20.9154   21.3379   21.8961 H   0  0  0  0  0  0  0  0  0  0  0  0
   18.9639   20.4809   22.2554 C   0  0  0  0  0  0  0  0  0  0  0  0
   18.4034   21.3877   21.9936 H   0  0  0  0  0  0  0  0  0  0  0  0
   18.3502   19.6501   21.8870 H   0  0  0  0  0  0  0  0  0  0  0  0
   19.0560   20.4093   23.8002 C   0  0  0  0  0  0  0  0  0  0  0  0
   19.2509   21.4171   24.1917 H   0  0  0  0  0  0  0  0  0  0  0  0
   18.0731   20.1178   24.1945 H   0  0  0  0  0  0  0  0  0  0  0  0
   20.0480   20.7263   20.1315 O   0  0  0  0  0  0  0  0  0  0  0  0
   19.5569   21.5726   20.0778 H   0  0  0  0  0  0  0  0  0  0  0  0
  1  2  1  0  0  0  0
  1  3  1  0  0  0  0
  1  4  1  0  0  0  0
  4  5  1  0  0  0  0
  4  6  1  0  0  0  0
  4  7  1  0  0  0  0
  7  8  1  0  0  0  0
  7  9  1  0  0  0  0
  7 10  1  0  0  0  0
 10 11  1  0  0  0  0
 10 12  1  0  0  0  0
 10 13  1  0  0  0  0
 13 14  1  0  0  0  0
 13 15  1  0  0  0  0
 15 16  1  0  0  0  0
 15 17  1  0  0  0  0
  1 18  1  0  0  0  0
 15 18  1  0  0  0  0
 18 19  1  0  0  0  0
 18 20  1  0  0  0  0
 13 21  1  0  0  0  0
 21 22  1  0  0  0  0
M  END
> <VConfSearch Rank>
73

> <Conf_Id>
141

> <Delta U+W>
0.000

> <U+W>
6.423

> <U>
8.781

> <W>
-2.358

> <W(PB)>
-4.373

> <W(SA)>
2.015

> <Valence>
13.328

> <Coulomb>
-8.387

> <VdW>
3.840

> <VdW6>
-9.744

> <VdW12>
13.584

> <Bond>
0.436

> <Angle>
3.478

> <Pdih>
9.415

> <Idih>
0.000

> <Tether>
0.000

$$$$
VeraChem MOL file


 22 22  0  0  0  0  0  0  0  0999 V2000     
   19.4850   17.9392   22.5334 C   0  0  0  0  0  0  0  0  0  0  0  0
   18.5227   18.2175   22.9841 H   0  0  0  0  0  0  0  0  0  0  0  0
   19.4097   16.8699   22.2929 H   0  0  0  0  0  0  0  0  0  0  0  0
   20.6416   18.1122   23.5473 C   0  0  0  0  0  0  0  0  0  0  0  0
   20.5295   17.3580   24.3381 H   0  0  0  0  0  0  0  0  0  0  0  0
   21.5962   17.8863   23.0527 H   0  0  0  0  0  0  0  0  0  0  0  0
   20.7292   19.5031   24.2165 C   0  0  0  0  0  0  0  0  0  0  0  0
   21.6223   19.5198   24.8560 H   0  0  0  0  0  0  0  0  0  0  0  0
   19.8740   19.6370   24.8930 H   0  0  0  0  0  0  0  0  0  0  0  0
   20.8020   20.6980   23.2347 C   0  0  0  0  0  0  0  0  0  0  0  0
   21.0911   21.5856   23.8128 H   0  0  0  0  0  0  0  0  0  0  0  0
   21.5977   20.5431   22.4945 H   0  0  0  0  0  0  0  0  0  0  0  0
   19.4545   20.9747   22.5309 C   0  0  0  0  0  0  0  0  0  0  0  0
   18.6434   20.7167   23.2268 H   0  0  0  0  0  0  0  0  0  0  0  0
   19.2399   20.1827   21.2209 C   0  0  0  0  0  0  0  0  0  0  0  0
   18.1663   20.2038   20.9932 H   0  0  0  0  0  0  0  0  0  0  0  0
   19.7333   20.7092   20.3930 H   0  0  0  0  0  0  0  0  0  0  0  0
   19.7211   18.7102   21.2136 C   0  0  0  0  0  0  0  0  0  0  0  0
   19.2031   18.1879   20.3978 H   0  0  0  0  0  0  0  0  0  0  0  0
   20.7882   18.6736   20.9553 H   0  0  0  0  0  0  0  0  0  0  0  0
   19.3730   22.3616   22.2258 O   0  0  0  0  0  0  0  0  0  0  0  0
   19.4352   22.8422   23.0777 H   0  0  0  0  0  0  0  0  0  0  0  0
  1  2  1  0  0  0  0
  1  3  1  0  0  0  0
  1  4  1  0  0  0  0
  4  5  1  0  0  0  0
  4  6  1  0  0  0  0
  4  7  1  0  0  0  0
  7  8  1  0  0  0  0
  7  9  1  0  0  0  0
  7 10  1  0  0  0  0
 10 11  1  0  0  0  0
 10 12  1  0  0  0  0
 10 13  1  0  0  0  0
 13 14  1  0  0  0  0
 13 15  1  0  0  0  0
 15 16  1  0  0  0  0
 15 17  1  0  0  0  0
  1 18  1  0  0  0  0
 15 18  1  0  0  0  0
 18 19  1  0  0  0  0
 18 20  1  0  0  0  0
 13 21  1  0  0  0  0
 21 22  1  0  0  0  0
M  END
> <VConfSearch Rank>
74

> <Conf_Id>
144

> <Delta U+W>
-3.291

> <U+W>
3.132

> <U>
5.411

> <W>
-2.279

> <W(PB)>
-4.300

> <W(SA)>
2.021

> <Valence>
11.909

> <Coulomb>
-8.733

> <VdW>
2.236

> <VdW6>
-8.936

> <VdW12>
11.172

> <Bond>
0.223

> <Angle>
2.457

> <Pdih>
9.228

> <Idih>
0.000

> <Tether>
0.000

$$$$
VeraChem MOL file


 22 22  0  0  0  0  0  0  0  0999 V2000     
   19.5943   18.1562   23.6191 C   0  0  0  0  0  0  0  0  0  0  0  0
   19.3178   17.4760   24.4363 H   0  0  0  0  0  0  0  0  0  0  0  0
   19.8270   17.5166   22.7569 H   0  0  0  0  0  0  0  0  0  0  0  0
   20.8408   18.9565   24.0639 C   0  0  0  0  0  0  0  0  0  0  0  0
   20.5272   19.8053   24.6867 H   0  0  0  0  0  0  0  0  0  0  0  0
   21.4543   18.3233   24.7195 H   0  0  0  0  0  0  0  0  0  0  0  0
   21.7415   19.4627   22.9114 C   0  0  0  0  0  0  0  0  0  0  0  0
   22.4230   18.6556   22.6095 H   0  0  0  0  0  0  0  0  0  0  0  0
   22.3831   20.2631   23.3047 H   0  0  0  0  0  0  0  0  0  0  0  0
   21.0127   19.9771   21.6455 C   0  0  0  0  0  0  0  0  0  0  0  0
   21.7222   20.5930   21.0765 H   0  0  0  0  0  0  0  0  0  0  0  0
   20.7717   19.1249   20.9971 H   0  0  0  0  0  0  0  0  0  0  0  0
   19.7277   20.7905   21.9189 C   0  0  0  0  0  0  0  0  0  0  0  0
   19.8488   21.3700   22.8452 H   0  0  0  0  0  0  0  0  0  0  0  0
   18.4720   19.8959   22.0274 C   0  0  0  0  0  0  0  0  0  0  0  0
   17.5798   20.5332   21.9657 H   0  0  0  0  0  0  0  0  0  0  0  0
   18.4251   19.2237   21.1607 H   0  0  0  0  0  0  0  0  0  0  0  0
   18.3720   19.0586   23.3245 C   0  0  0  0  0  0  0  0  0  0  0  0
   18.1991   19.7286   24.1778 H   0  0  0  0  0  0  0  0  0  0  0  0
   17.4773   18.4249   23.2557 H   0  0  0  0  0  0  0  0  0  0  0  0
   19.5300   21.6906   20.8368 O   0  0  0  0  0  0  0  0  0  0  0  0
   19.4285   21.1394   20.0336 H   0  0  0  0  0  0  0  0  0  0  0  0
  1  2  1  0  0  0  0
  1  3  1  0  0  0  0
  1  4  1  0  0  0  0
  4  5  1  0  0  0  0
  4  6  1  0  0  0  0
  4  7  1  0  0  0  0
  7  8  1  0  0  0  0
  7  9  1  0  0  0  0
  7 10  1  0  0  0  0
 10 11  1  0  0  0  0
 10 12  1  0  0  0  0
 10 13  1  0  0  0  0
 13 14  1  0  0  0  0
 13 15  1  0  0  0  0
 15 16  1  0  0  0  0
 15 17  1  0  0  0  0
  1 18  1  0  0  0  0
 15 18  1  0  0  0  0
 18 19  1  0  0  0  0
 18 20  1  0  0  0  0
 13 21  1  0  0  0  0
 21 22  1  0  0  0  0
M  END
> <VConfSearch Rank>
75

> <Conf_Id>
76

> <Delta U+W>
-3.175

> <U+W>
3.248

> <U>
5.336

> <W>
-2.088

> <W(PB)>
-4.098

> <W(SA)>
2.010

> <Valence>
12.390

> <Coulomb>
-9.270

> <VdW>
2.216

> <VdW6>
-8.967

> <VdW12>
11.183

> <Bond>
0.218

> <Angle>
2.426

> <Pdih>
9.745

> <Idih>
0.000

> <Tether>
0.000

$$$$
VeraChem MOL file


 22 22  0  0  0  0  0  0  0  0999 V2000     
   21.3375   20.0574   23.9753 C   0  0  0  0  0  0  0  0  0  0  0  0
   22.2035   19.4738   24.3161 H   0  0  0  0  0  0  0  0  0  0  0  0
   21.4135   21.0283   24.4837 H   0  0  0  0  0  0  0  0  0  0  0  0
   20.0522   19.3403   24.4535 C   0  0  0  0  0  0  0  0  0  0  0  0
   20.1982   18.2529   24.4014 H   0  0  0  0  0  0  0  0  0  0  0  0
   19.9136   19.5672   25.5193 H   0  0  0  0  0  0  0  0  0  0  0  0
   18.7652   19.7239   23.6868 C   0  0  0  0  0  0  0  0  0  0  0  0
   18.7642   20.7918   23.4287 H   0  0  0  0  0  0  0  0  0  0  0  0
   17.9098   19.5722   24.3588 H   0  0  0  0  0  0  0  0  0  0  0  0
   18.5352   18.8521   22.4262 C   0  0  0  0  0  0  0  0  0  0  0  0
   18.6131   17.7925   22.7013 H   0  0  0  0  0  0  0  0  0  0  0  0
   17.5007   18.9932   22.0867 H   0  0  0  0  0  0  0  0  0  0  0  0
   19.4715   19.1249   21.2270 C   0  0  0  0  0  0  0  0  0  0  0  0
   19.3014   18.3162   20.5016 H   0  0  0  0  0  0  0  0  0  0  0  0
   20.9847   19.1281   21.5595 C   0  0  0  0  0  0  0  0  0  0  0  0
   21.2672   18.1709   22.0167 H   0  0  0  0  0  0  0  0  0  0  0  0
   21.5323   19.1751   20.6094 H   0  0  0  0  0  0  0  0  0  0  0  0
   21.4608   20.3032   22.4526 C   0  0  0  0  0  0  0  0  0  0  0  0
   22.5157   20.5122   22.2293 H   0  0  0  0  0  0  0  0  0  0  0  0
   20.9202   21.2212   22.1870 H   0  0  0  0  0  0  0  0  0  0  0  0
   19.1024   20.3558   20.6134 O   0  0  0  0  0  0  0  0  0  0  0  0
   19.7492   20.5148   19.8959 H   0  0  0  0  0  0  0  0  0  0  0  0
  1  2  1  0  0  0  0
  1  3  1  0  0  0  0
  1  4  1  0  0  0  0
  4  5  1  0  0  0  0
  4  6  1  0  0  0  0
  4  7  1  0  0  0  0
  7  8  1  0  0  0  0
  7  9  1  0  0  0  0
  7 10  1  0  0  0  0
 10 11  1  0  0  0  0
 10 12  1  0  0  0  0
 10 13  1  0  0  0  0
 13 14  1  0  0  0  0
 13 15  1  0  0  0  0
 15 16  1  0  0  0  0
 15 17  1  0  0  0  0
  1 18  1  0  0  0  0
 15 18  1  0  0  0  0
 18 19  1  0  0  0  0
 18 20  1  0  0  0  0
 13 21  1  0  0  0  0
 21 22  1  0  0  0  0
M  END
> <VConfSearch Rank>
76

> <Conf_Id>
95

> <Delta U+W>
-2.289

> <U+W>
4.134

> <U>
6.373

> <W>
-2.240

> <W(PB)>
-4.254

> <W(SA)>
2.015

> <Valence>
12.093

> <Coulomb>
-8.058

> <VdW>
2.339

> <VdW6>
-9.683

> <VdW12>
12.022

> <Bond>
0.268

> <Angle>
3.005

> <Pdih>
8.820

> <Idih>
0.000

> <Tether>
0.000

$$$$
VeraChem MOL file


 22 22  0  0  0  0  0  0  0  0999 V2000     
   21.9275   19.8126   22.9805 C   0  0  0  0  0  0  0  0  0  0  0  0
   22.5566   20.6908   22.7811 H   0  0  0  0  0  0  0  0  0  0  0  0
   22.5981   19.0579   23.4134 H   0  0  0  0  0  0  0  0  0  0  0  0
   21.3879   19.2869   21.6289 C   0  0  0  0  0  0  0  0  0  0  0  0
   21.1808   20.1353   20.9627 H   0  0  0  0  0  0  0  0  0  0  0  0
   22.1918   18.7197   21.1401 H   0  0  0  0  0  0  0  0  0  0  0  0
   20.1308   18.3918   21.7286 C   0  0  0  0  0  0  0  0  0  0  0  0
   20.1780   17.7450   22.6153 H   0  0  0  0  0  0  0  0  0  0  0  0
   20.1225   17.7189   20.8605 H   0  0  0  0  0  0  0  0  0  0  0  0
   18.8134   19.2073   21.7067 C   0  0  0  0  0  0  0  0  0  0  0  0
   18.8362   19.9035   20.8583 H   0  0  0  0  0  0  0  0  0  0  0  0
   17.9805   18.5230   21.4992 H   0  0  0  0  0  0  0  0  0  0  0  0
   18.4821   20.0026   22.9902 C   0  0  0  0  0  0  0  0  0  0  0  0
   17.6276   20.6516   22.7501 H   0  0  0  0  0  0  0  0  0  0  0  0
   19.6183   20.9205   23.5069 C   0  0  0  0  0  0  0  0  0  0  0  0
   19.9099   21.6325   22.7243 H   0  0  0  0  0  0  0  0  0  0  0  0
   19.2009   21.5255   24.3222 H   0  0  0  0  0  0  0  0  0  0  0  0
   20.8694   20.1806   24.0479 C   0  0  0  0  0  0  0  0  0  0  0  0
   21.3562   20.8151   24.8006 H   0  0  0  0  0  0  0  0  0  0  0  0
   20.5631   19.2745   24.5871 H   0  0  0  0  0  0  0  0  0  0  0  0
   18.0788   19.0990   24.0148 O   0  0  0  0  0  0  0  0  0  0  0  0
   17.3759   18.5353   23.6322 H   0  0  0  0  0  0  0  0  0  0  0  0
  1  2  1  0  0  0  0
  1  3  1  0  0  0  0
  1  4  1  0  0  0  0
  4  5  1  0  0  0  0
  4  6  1  0  0  0  0
  4  7  1  0  0  0  0
  7  8  1  0  0  0  0
  7  9  1  0  0  0  0
  7 10  1  0  0  0  0
 10 11  1  0  0  0  0
 10 12  1  0  0  0  0
 10 13  1  0  0  0  0
 13 14  1  0  0  0  0
 13 15  1  0  0  0  0
 15 16  1  0  0  0  0
 15 17  1  0  0  0  0
  1 18  1  0  0  0  0
 15 18  1  0  0  0  0
 18 19  1  0  0  0  0
 18 20  1  0  0  0  0
 13 21  1  0  0  0  0
 21 22  1  0  0  0  0
M  END
> <VConfSearch Rank>
77

> <Conf_Id>
41

> <Delta U+W>
-2.114

> <U+W>
4.310

> <U>
6.598

> <W>
-2.289

> <W(PB)>
-4.294

> <W(SA)>
2.005

> <Valence>
12.082

> <Coulomb>
-7.801

> <VdW>
2.317

> <VdW6>
-9.658

> <VdW12>
11.975

> <Bond>
0.267

> <Angle>
3.051

> <Pdih>
8.764

> <Idih>
0.000

> <Tether>
0.000

$$$$
VeraChem MOL file


 22 22  0  0  0  0  0  0  0  0999 V2000     
   18.8108   19.5788   21.6429 C   0  0  0  0  0  0  0  0  0  0  0  0
   17.8311   19.5409   21.1477 H   0  0  0  0  0  0  0  0  0  0  0  0
   19.4646   20.1705   20.9873 H   0  0  0  0  0  0  0  0  0  0  0  0
   19.3328   18.1303   21.7720 C   0  0  0  0  0  0  0  0  0  0  0  0
   18.7024   17.5740   22.4789 H   0  0  0  0  0  0  0  0  0  0  0  0
   19.2146   17.6271   20.8027 H   0  0  0  0  0  0  0  0  0  0  0  0
   20.8123   18.0144   22.1996 C   0  0  0  0  0  0  0  0  0  0  0  0
   21.4566   18.3829   21.3902 H   0  0  0  0  0  0  0  0  0  0  0  0
   21.0519   16.9476   22.3033 H   0  0  0  0  0  0  0  0  0  0  0  0
   21.1721   18.7274   23.5312 C   0  0  0  0  0  0  0  0  0  0  0  0
   20.4790   18.4177   24.3236 H   0  0  0  0  0  0  0  0  0  0  0  0
   22.1603   18.3669   23.8444 H   0  0  0  0  0  0  0  0  0  0  0  0
   21.2479   20.2750   23.4737 C   0  0  0  0  0  0  0  0  0  0  0  0
   21.8079   20.5965   24.3638 H   0  0  0  0  0  0  0  0  0  0  0  0
   19.8895   21.0215   23.5261 C   0  0  0  0  0  0  0  0  0  0  0  0
   19.6994   21.3059   24.5692 H   0  0  0  0  0  0  0  0  0  0  0  0
   19.9814   21.9701   22.9811 H   0  0  0  0  0  0  0  0  0  0  0  0
   18.6347   20.2738   23.0110 C   0  0  0  0  0  0  0  0  0  0  0  0
   18.3029   19.5420   23.7598 H   0  0  0  0  0  0  0  0  0  0  0  0
   17.8180   21.0042   22.9314 H   0  0  0  0  0  0  0  0  0  0  0  0
   21.9824   20.6957   22.3273 O   0  0  0  0  0  0  0  0  0  0  0  0
   22.0312   21.6725   22.3655 H   0  0  0  0  0  0  0  0  0  0  0  0
  1  2  1  0  0  0  0
  1  3  1  0  0  0  0
  1  4  1  0  0  0  0
  4  5  1  0  0  0  0
  4  6  1  0  0  0  0
  4  7  1  0  0  0  0
  7  8  1  0  0  0  0
  7  9  1  0  0  0  0
  7 10  1  0  0  0  0
 10 11  1  0  0  0  0
 10 12  1  0  0  0  0
 10 13  1  0  0  0  0
 13 14  1  0  0  0  0
 13 15  1  0  0  0  0
 15 16  1  0  0  0  0
 15 17  1  0  0  0  0
  1 18  1  0  0  0  0
 15 18  1  0  0  0  0
 18 19  1  0  0  0  0
 18 20  1  0  0  0  0
 13 21  1  0  0  0  0
 21 22  1  0  0  0  0
M  END
> <VConfSearch Rank>
78

> <Conf_Id>
104

> <Delta U+W>
-1.172

> <U+W>
5.252

> <U>
7.482

> <W>
-2.230

> <W(PB)>
-4.220

> <W(SA)>
1.990

> <Valence>
12.309

> <Coulomb>
-7.084

> <VdW>
2.258

> <VdW6>
-9.770

> <VdW12>
12.028

> <Bond>
0.284

> <Angle>
3.491

> <Pdih>
8.535

> <Idih>
0.000

> <Tether>
0.000

$$$$
VeraChem MOL file


 22 22  0  0  0  0  0  0  0  0999 V2000     
   21.3180   20.0948   21.7332 C   0  0  0  0  0  0  0  0  0  0  0  0
   20.6731   20.7088   21.0901 H   0  0  0  0  0  0  0  0  0  0  0  0
   22.3342   20.1976   21.3284 H   0  0  0  0  0  0  0  0  0  0  0  0
   20.9236   18.6026   21.6473 C   0  0  0  0  0  0  0  0  0  0  0  0
   21.3481   18.1806   20.7259 H   0  0  0  0  0  0  0  0  0  0  0  0
   21.4094   18.0505   22.4625 H   0  0  0  0  0  0  0  0  0  0  0  0
   19.4019   18.3095   21.6431 C   0  0  0  0  0  0  0  0  0  0  0  0
   19.2426   17.2923   22.0270 H   0  0  0  0  0  0  0  0  0  0  0  0
   19.0557   18.2847   20.6007 H   0  0  0  0  0  0  0  0  0  0  0  0
   18.4852   19.2954   22.4169 C   0  0  0  0  0  0  0  0  0  0  0  0
   18.3265   20.1930   21.8054 H   0  0  0  0  0  0  0  0  0  0  0  0
   17.4941   18.8331   22.5117 H   0  0  0  0  0  0  0  0  0  0  0  0
   18.9491   19.7303   23.8260 C   0  0  0  0  0  0  0  0  0  0  0  0
   18.0587   20.0739   24.3719 H   0  0  0  0  0  0  0  0  0  0  0  0
   19.9381   20.9173   23.7925 C   0  0  0  0  0  0  0  0  0  0  0  0
   19.4717   21.7483   23.2474 H   0  0  0  0  0  0  0  0  0  0  0  0
   20.0748   21.2780   24.8204 H   0  0  0  0  0  0  0  0  0  0  0  0
   21.3338   20.6375   23.1821 C   0  0  0  0  0  0  0  0  0  0  0  0
   21.8999   21.5788   23.1916 H   0  0  0  0  0  0  0  0  0  0  0  0
   21.8932   19.9504   23.8313 H   0  0  0  0  0  0  0  0  0  0  0  0
   19.5230   18.6348   24.5223 O   0  0  0  0  0  0  0  0  0  0  0  0
   20.2488   18.3355   23.9393 H   0  0  0  0  0  0  0  0  0  0  0  0
  1  2  1  0  0  0  0
  1  3  1  0  0  0  0
  1  4  1  0  0  0  0
  4  5  1  0  0  0  0
  4  6  1  0  0  0  0
  4  7  1  0  0  0  0
  7  8  1  0  0  0  0
  7  9  1  0  0  0  0
  7 10  1  0  0  0  0
 10 11  1  0  0  0  0
 10 12  1  0  0  0  0
 10 13  1  0  0  0  0
 13 14  1  0  0  0  0
 13 15  1  0  0  0  0
 15 16  1  0  0  0  0
 15 17  1  0  0  0  0
  1 18  1  0  0  0  0
 15 18  1  0  0  0  0
 18 19  1  0  0  0  0
 18 20  1  0  0  0  0
 13 21  1  0  0  0  0
 21 22  1  0  0  0  0
M  END
> <VConfSearch Rank>
79

> <Conf_Id>
99

> <Delta U+W>
-3.852

> <U+W>
2.572

> <U>
3.922

> <W>
-1.350

> <W(PB)>
-3.345

> <W(SA)>
1.995

> <Valence>
12.571

> <Coulomb>
-10.581

> <VdW>
1.932

> <VdW6>
-10.483

> <VdW12>
12.415

> <Bond>
0.268

> <Angle>
3.728

> <Pdih>
8.575

> <Idih>
0.000

> <Tether>
0.000

$$$$
VeraChem MOL file


 22 22  0  0  0  0  0  0  0  0999 V2000     
   18.7484   20.2301   23.4605 C   0  0  0  0  0  0  0  0  0  0  0  0
   18.0054   20.2225   24.2699 H   0  0  0  0  0  0  0  0  0  0  0  0
   18.5083   21.1206   22.8642 H   0  0  0  0  0  0  0  0  0  0  0  0
   18.5409   18.9429   22.6098 C   0  0  0  0  0  0  0  0  0  0  0  0
   17.7079   18.3782   23.0509 H   0  0  0  0  0  0  0  0  0  0  0  0
   18.2000   19.2075   21.5999 H   0  0  0  0  0  0  0  0  0  0  0  0
   19.7590   17.9892   22.5130 C   0  0  0  0  0  0  0  0  0  0  0  0
   19.4253   17.0459   22.0596 H   0  0  0  0  0  0  0  0  0  0  0  0
   20.0906   17.7086   23.5205 H   0  0  0  0  0  0  0  0  0  0  0  0
   20.9688   18.5108   21.6890 C   0  0  0  0  0  0  0  0  0  0  0  0
   21.8647   17.9650   22.0120 H   0  0  0  0  0  0  0  0  0  0  0  0
   20.8203   18.2283   20.6382 H   0  0  0  0  0  0  0  0  0  0  0  0
   21.2795   20.0275   21.7247 C   0  0  0  0  0  0  0  0  0  0  0  0
   22.2768   20.1598   21.2812 H   0  0  0  0  0  0  0  0  0  0  0  0
   21.3194   20.6858   23.1259 C   0  0  0  0  0  0  0  0  0  0  0  0
   22.2568   20.3973   23.6186 H   0  0  0  0  0  0  0  0  0  0  0  0
   21.3911   21.7718   22.9791 H   0  0  0  0  0  0  0  0  0  0  0  0
   20.1477   20.3994   24.1056 C   0  0  0  0  0  0  0  0  0  0  0  0
   20.3827   19.5191   24.7167 H   0  0  0  0  0  0  0  0  0  0  0  0
   20.0999   21.2292   24.8239 H   0  0  0  0  0  0  0  0  0  0  0  0
   20.3583   20.7218   20.8985 O   0  0  0  0  0  0  0  0  0  0  0  0
   19.4941   20.5745   21.3324 H   0  0  0  0  0  0  0  0  0  0  0  0
  1  2  1  0  0  0  0
  1  3  1  0  0  0  0
  1  4  1  0  0  0  0
  4  5  1  0  0  0  0
  4  6  1  0  0  0  0
  4  7  1  0  0  0  0
  7  8  1  0  0  0  0
  7  9  1  0  0  0  0
  7 10  1  0  0  0  0
 10 11  1  0  0  0  0
 10 12  1  0  0  0  0
 10 13  1  0  0  0  0
 13 14  1  0  0  0  0
 13 15  1  0  0  0  0
 15 16  1  0  0  0  0
 15 17  1  0  0  0  0
  1 18  1  0  0  0  0
 15 18  1  0  0  0  0
 18 19  1  0  0  0  0
 18 20  1  0  0  0  0
 13 21  1  0  0  0  0
 21 22  1  0  0  0  0
M  END
> <VConfSearch Rank>
80

> <Conf_Id>
98

> <Delta U+W>
0.930

> <U+W>
7.353

> <U>
8.455

> <W>
-1.102

> <W(PB)>
-3.101

> <W(SA)>
2.000

> <Valence>
15.601

> <Coulomb>
-10.573

> <VdW>
3.427

> <VdW6>
-11.360

> <VdW12>
14.787

> <Bond>
0.471

> <Angle>
5.445

> <Pdih>
9.685

> <Idih>
0.000

> <Tether>
0.000

$$$$
VeraChem MOL file


 22 22  0  0  0  0  0  0  0  0999 V2000     
   18.4727   18.8134   22.4224 C   0  0  0  0  0  0  0  0  0  0  0  0
   18.5795   19.0522   21.3565 H   0  0  0  0  0  0  0  0  0  0  0  0
   17.5217   18.2688   22.4987 H   0  0  0  0  0  0  0  0  0  0  0  0
   18.3585   20.1227   23.2438 C   0  0  0  0  0  0  0  0  0  0  0  0
   17.4824   20.6712   22.8716 H   0  0  0  0  0  0  0  0  0  0  0  0
   18.1349   19.8811   24.2918 H   0  0  0  0  0  0  0  0  0  0  0  0
   19.5844   21.0761   23.1901 C   0  0  0  0  0  0  0  0  0  0  0  0
   20.1655   20.9946   24.1178 H   0  0  0  0  0  0  0  0  0  0  0  0
   19.2139   22.1101   23.1785 H   0  0  0  0  0  0  0  0  0  0  0  0
   20.5235   20.8709   21.9719 C   0  0  0  0  0  0  0  0  0  0  0  0
   19.9276   20.8897   21.0510 H   0  0  0  0  0  0  0  0  0  0  0  0
   21.1861   21.7435   21.8964 H   0  0  0  0  0  0  0  0  0  0  0  0
   21.3919   19.5789   21.9927 C   0  0  0  0  0  0  0  0  0  0  0  0
   21.3274   19.1113   20.9996 H   0  0  0  0  0  0  0  0  0  0  0  0
   21.0020   18.5180   23.0523 C   0  0  0  0  0  0  0  0  0  0  0  0
   21.7549   17.7191   23.0492 H   0  0  0  0  0  0  0  0  0  0  0  0
   21.0588   18.9593   24.0547 H   0  0  0  0  0  0  0  0  0  0  0  0
   19.6127   17.8617   22.8551 C   0  0  0  0  0  0  0  0  0  0  0  0
   19.6988   17.0670   22.1016 H   0  0  0  0  0  0  0  0  0  0  0  0
   19.3284   17.3606   23.7904 H   0  0  0  0  0  0  0  0  0  0  0  0
   22.7442   19.9488   22.2372 O   0  0  0  0  0  0  0  0  0  0  0  0
   23.2753   19.1268   22.1880 H   0  0  0  0  0  0  0  0  0  0  0  0
  1  2  1  0  0  0  0
  1  3  1  0  0  0  0
  1  4  1  0  0  0  0
  4  5  1  0  0  0  0
  4  6  1  0  0  0  0
  4  7  1  0  0  0  0
  7  8  1  0  0  0  0
  7  9  1  0  0  0  0
  7 10  1  0  0  0  0
 10 11  1  0  0  0  0
 10 12  1  0  0  0  0
 10 13  1  0  0  0  0
 13 14  1  0  0  0  0
 13 15  1  0  0  0  0
 15 16  1  0  0  0  0
 15 17  1  0  0  0  0
  1 18  1  0  0  0  0
 15 18  1  0  0  0  0
 18 19  1  0  0  0  0
 18 20  1  0  0  0  0
 13 21  1  0  0  0  0
 21 22  1  0  0  0  0
M  END
> <VConfSearch Rank>
81

> <Conf_Id>
141

> <Delta U+W>
0.000

> <U+W>
6.423

> <U>
8.781

> <W>
-2.358

> <W(PB)>
-4.373

> <W(SA)>
2.015

> <Valence>
13.328

> <Coulomb>
-8.387

> <VdW>
3.840

> <VdW6>
-9.744

> <VdW12>
13.584

> <Bond>
0.436

> <Angle>
3.478

> <Pdih>
9.415

> <Idih>
0.000

> <Tether>
0.000

$$$$
VeraChem MOL file


 22 22  0  0  0  0  0  0  0  0999 V2000     
   20.6150   18.1561   21.9198 C   0  0  0  0  0  0  0  0  0  0  0  0
   20.5625   18.6573   20.9438 H   0  0  0  0  0  0  0  0  0  0  0  0
   21.0594   17.1694   21.7310 H   0  0  0  0  0  0  0  0  0  0  0  0
   19.1991   17.9297   22.5027 C   0  0  0  0  0  0  0  0  0  0  0  0
   18.6823   17.1818   21.8859 H   0  0  0  0  0  0  0  0  0  0  0  0
   19.2842   17.4840   23.5032 H   0  0  0  0  0  0  0  0  0  0  0  0
   18.3080   19.1908   22.5789 C   0  0  0  0  0  0  0  0  0  0  0  0
   17.3642   18.9141   23.0682 H   0  0  0  0  0  0  0  0  0  0  0  0
   18.0369   19.5079   21.5626 H   0  0  0  0  0  0  0  0  0  0  0  0
   18.9292   20.3854   23.3433 C   0  0  0  0  0  0  0  0  0  0  0  0
   18.1292   21.1148   23.5259 H   0  0  0  0  0  0  0  0  0  0  0  0
   19.2858   20.0691   24.3321 H   0  0  0  0  0  0  0  0  0  0  0  0
   20.0648   21.0737   22.5531 C   0  0  0  0  0  0  0  0  0  0  0  0
   19.8309   21.0016   21.4812 H   0  0  0  0  0  0  0  0  0  0  0  0
   21.4675   20.4671   22.7853 C   0  0  0  0  0  0  0  0  0  0  0  0
   22.1129   20.8007   21.9625 H   0  0  0  0  0  0  0  0  0  0  0  0
   21.9011   20.8938   23.6996 H   0  0  0  0  0  0  0  0  0  0  0  0
   21.5479   18.9233   22.8859 C   0  0  0  0  0  0  0  0  0  0  0  0
   22.5869   18.6241   22.6913 H   0  0  0  0  0  0  0  0  0  0  0  0
   21.3407   18.6111   23.9185 H   0  0  0  0  0  0  0  0  0  0  0  0
   20.1121   22.4469   22.9208 O   0  0  0  0  0  0  0  0  0  0  0  0
   19.2385   22.8297   22.6953 H   0  0  0  0  0  0  0  0  0  0  0  0
  1  2  1  0  0  0  0
  1  3  1  0  0  0  0
  1  4  1  0  0  0  0
  4  5  1  0  0  0  0
  4  6  1  0  0  0  0
  4  7  1  0  0  0  0
  7  8  1  0  0  0  0
  7  9  1  0  0  0  0
  7 10  1  0  0  0  0
 10 11  1  0  0  0  0
 10 12  1  0  0  0  0
 10 13  1  0  0  0  0
 13 14  1  0  0  0  0
 13 15  1  0  0  0  0
 15 16  1  0  0  0  0
 15 17  1  0  0  0  0
  1 18  1  0  0  0  0
 15 18  1  0  0  0  0
 18 19  1  0  0  0  0
 18 20  1  0  0  0  0
 13 21  1  0  0  0  0
 21 22  1  0  0  0  0
M  END
> <VConfSearch Rank>
82

> <Conf_Id>
144

> <Delta U+W>
-3.291

> <U+W>
3.132

> <U>
5.411

> <W>
-2.279

> <W(PB)>
-4.300

> <W(SA)>
2.021

> <Valence>
11.909

> <Coulomb>
-8.733

> <VdW>
2.236

> <VdW6>
-8.936

> <VdW12>
11.172

> <Bond>
0.223

> <Angle>
2.457

> <Pdih>
9.228

> <Idih>
0.000

> <Tether>
0.000

$$$$
VeraChem MOL file


 22 22  0  0  0  0  0  0  0  0999 V2000     
   19.6837   18.1554   21.6612 C   0  0  0  0  0  0  0  0  0  0  0  0
   19.2374   17.3354   21.0822 H   0  0  0  0  0  0  0  0  0  0  0  0
   20.7714   18.0467   21.5534 H   0  0  0  0  0  0  0  0  0  0  0  0
   19.2565   17.9859   23.1380 C   0  0  0  0  0  0  0  0  0  0  0  0
   18.2531   18.4100   23.2794 H   0  0  0  0  0  0  0  0  0  0  0  0
   19.1551   16.9143   23.3579 H   0  0  0  0  0  0  0  0  0  0  0  0
   20.2290   18.5955   24.1766 C   0  0  0  0  0  0  0  0  0  0  0  0
   21.0365   17.8774   24.3747 H   0  0  0  0  0  0  0  0  0  0  0  0
   19.6891   18.7066   25.1270 H   0  0  0  0  0  0  0  0  0  0  0  0
   20.8725   19.9530   23.8008 C   0  0  0  0  0  0  0  0  0  0  0  0
   21.2506   20.4124   24.7241 H   0  0  0  0  0  0  0  0  0  0  0  0
   21.7560   19.7721   23.1750 H   0  0  0  0  0  0  0  0  0  0  0  0
   19.9303   20.9434   23.0805 C   0  0  0  0  0  0  0  0  0  0  0  0
   18.9077   20.8258   23.4665 H   0  0  0  0  0  0  0  0  0  0  0  0
   19.9307   20.7526   21.5467 C   0  0  0  0  0  0  0  0  0  0  0  0
   19.4555   21.6277   21.0834 H   0  0  0  0  0  0  0  0  0  0  0  0
   20.9651   20.7393   21.1795 H   0  0  0  0  0  0  0  0  0  0  0  0
   19.1969   19.4875   21.0419 C   0  0  0  0  0  0  0  0  0  0  0  0
   18.1180   19.5984   21.2167 H   0  0  0  0  0  0  0  0  0  0  0  0
   19.3191   19.4321   19.9516 H   0  0  0  0  0  0  0  0  0  0  0  0
   20.3759   22.2647   23.3559 O   0  0  0  0  0  0  0  0  0  0  0  0
   21.2861   22.3294   23.0003 H   0  0  0  0  0  0  0  0  0  0  0  0
  1  2  1  0  0  0  0
  1  3  1  0  0  0  0
  1  4  1  0  0  0  0
  4  5  1  0  0  0  0
  4  6  1  0  0  0  0
  4  7  1  0  0  0  0
  7  8  1  0  0  0  0
  7  9  1  0  0  0  0
  7 10  1  0  0  0  0
 10 11  1  0  0  0  0
 10 12  1  0  0  0  0
 10 13  1  0  0  0  0
 13 14  1  0  0  0  0
 13 15  1  0  0  0  0
 15 16  1  0  0  0  0
 15 17  1  0  0  0  0
  1 18  1  0  0  0  0
 15 18  1  0  0  0  0
 18 19  1  0  0  0  0
 18 20  1  0  0  0  0
 13 21  1  0  0  0  0
 21 22  1  0  0  0  0
M  END
> <VConfSearch Rank>
83

> <Conf_Id>
76

> <Delta U+W>
-3.175

> <U+W>
3.248

> <U>
5.336

> <W>
-2.088

> <W(PB)>
-4.098

> <W(SA)>
2.010

> <Valence>
12.390

> <Coulomb>
-9.270

> <VdW>
2.216

> <VdW6>
-8.967

> <VdW12>
11.183

> <Bond>
0.218

> <Angle>
2.426

> <Pdih>
9.745

> <Idih>
0.000

> <Tether>
0.000

$$$$
VeraChem MOL file


 22 22  0  0  0  0  0  0  0  0999 V2000     
   21.5599   20.6787   22.8797 C   0  0  0  0  0  0  0  0  0  0  0  0
   22.1850   20.8055   23.7741 H   0  0  0  0  0  0  0  0  0  0  0  0
   22.0368   21.2815   22.0948 H   0  0  0  0  0  0  0  0  0  0  0  0
   20.1597   21.2646   23.1809 C   0  0  0  0  0  0  0  0  0  0  0  0
   19.8938   21.0599   24.2267 H   0  0  0  0  0  0  0  0  0  0  0  0
   20.2257   22.3585   23.1035 H   0  0  0  0  0  0  0  0  0  0  0  0
   19.0275   20.7631   22.2545 C   0  0  0  0  0  0  0  0  0  0  0  0
   19.3879   20.6386   21.2243 H   0  0  0  0  0  0  0  0  0  0  0  0
   18.2511   21.5389   22.2141 H   0  0  0  0  0  0  0  0  0  0  0  0
   18.3653   19.4593   22.7681 C   0  0  0  0  0  0  0  0  0  0  0  0
   18.0808   19.5893   23.8201 H   0  0  0  0  0  0  0  0  0  0  0  0
   17.4235   19.3072   22.2247 H   0  0  0  0  0  0  0  0  0  0  0  0
   19.2053   18.1686   22.6356 C   0  0  0  0  0  0  0  0  0  0  0  0
   18.6776   17.3874   23.2017 H   0  0  0  0  0  0  0  0  0  0  0  0
   20.6420   18.2553   23.2091 C   0  0  0  0  0  0  0  0  0  0  0  0
   20.6033   18.5436   24.2675 H   0  0  0  0  0  0  0  0  0  0  0  0
   21.0663   17.2431   23.1935 H   0  0  0  0  0  0  0  0  0  0  0  0
   21.6037   19.1964   22.4379 C   0  0  0  0  0  0  0  0  0  0  0  0
   22.6327   18.8357   22.5700 H   0  0  0  0  0  0  0  0  0  0  0  0
   21.4094   19.1320   21.3593 H   0  0  0  0  0  0  0  0  0  0  0  0
   19.2470   17.7735   21.2680 O   0  0  0  0  0  0  0  0  0  0  0  0
   19.8282   16.9871   21.2225 H   0  0  0  0  0  0  0  0  0  0  0  0
  1  2  1  0  0  0  0
  1  3  1  0  0  0  0
  1  4  1  0  0  0  0
  4  5  1  0  0  0  0
  4  6  1  0  0  0  0
  4  7  1  0  0  0  0
  7  8  1  0  0  0  0
  7  9  1  0  0  0  0
  7 10  1  0  0  0  0
 10 11  1  0  0  0  0
 10 12  1  0  0  0  0
 10 13  1  0  0  0  0
 13 14  1  0  0  0  0
 13 15  1  0  0  0  0
 15 16  1  0  0  0  0
 15 17  1  0  0  0  0
  1 18  1  0  0  0  0
 15 18  1  0  0  0  0
 18 19  1  0  0  0  0
 18 20  1  0  0  0  0
 13 21  1  0  0  0  0
 21 22  1  0  0  0  0
M  END
> <VConfSearch Rank>
84

> <Conf_Id>
95

> <Delta U+W>
-2.289

> <U+W>
4.134

> <U>
6.373

> <W>
-2.240

> <W(PB)>
-4.254

> <W(SA)>
2.015

> <Valence>
12.093

> <Coulomb>
-8.058

> <VdW>
2.339

> <VdW6>
-9.683

> <VdW12>
12.022

> <Bond>
0.268

> <Angle>
3.005

> <Pdih>
8.820

> <Idih>
0.000

> <Tether>
0.000

$$$$
VeraChem MOL file


 22 22  0  0  0  0  0  0  0  0999 V2000     
   21.8371   19.8901   22.0963 C   0  0  0  0  0  0  0  0  0  0  0  0
   22.5421   20.6801   22.3890 H   0  0  0  0  0  0  0  0  0  0  0  0
   22.3871   19.2431   21.3994 H   0  0  0  0  0  0  0  0  0  0  0  0
   20.6571   20.5492   21.3429 C   0  0  0  0  0  0  0  0  0  0  0  0
   20.4358   21.5264   21.7930 H   0  0  0  0  0  0  0  0  0  0  0  0
   20.9880   20.7666   20.3182 H   0  0  0  0  0  0  0  0  0  0  0  0
   19.3632   19.7044   21.2843 C   0  0  0  0  0  0  0  0  0  0  0  0
   19.5953   18.6377   21.1609 H   0  0  0  0  0  0  0  0  0  0  0  0
   18.8039   20.0005   20.3866 H   0  0  0  0  0  0  0  0  0  0  0  0
   18.4439   19.9335   22.5105 C   0  0  0  0  0  0  0  0  0  0  0  0
   18.3022   21.0121   22.6563 H   0  0  0  0  0  0  0  0  0  0  0  0
   17.4464   19.5375   22.2802 H   0  0  0  0  0  0  0  0  0  0  0  0
   18.9185   19.3123   23.8442 C   0  0  0  0  0  0  0  0  0  0  0  0
   18.2609   19.7092   24.6311 H   0  0  0  0  0  0  0  0  0  0  0  0
   20.3729   19.6586   24.2504 C   0  0  0  0  0  0  0  0  0  0  0  0
   20.4953   20.7474   24.3129 H   0  0  0  0  0  0  0  0  0  0  0  0
   20.5234   19.2810   25.2700 H   0  0  0  0  0  0  0  0  0  0  0  0
   21.4738   19.0493   23.3435 C   0  0  0  0  0  0  0  0  0  0  0  0
   22.3872   18.9167   23.9387 H   0  0  0  0  0  0  0  0  0  0  0  0
   21.1823   18.0379   23.0309 H   0  0  0  0  0  0  0  0  0  0  0  0
   18.7475   17.8991   23.7942 O   0  0  0  0  0  0  0  0  0  0  0  0
   17.8225   17.7371   23.5181 H   0  0  0  0  0  0  0  0  0  0  0  0
  1  2  1  0  0  0  0
  1  3  1  0  0  0  0
  1  4  1  0  0  0  0
  4  5  1  0  0  0  0
  4  6  1  0  0  0  0
  4  7  1  0  0  0  0
  7  8  1  0  0  0  0
  7  9  1  0  0  0  0
  7 10  1  0  0  0  0
 10 11  1  0  0  0  0
 10 12  1  0  0  0  0
 10 13  1  0  0  0  0
 13 14  1  0  0  0  0
 13 15  1  0  0  0  0
 15 16  1  0  0  0  0
 15 17  1  0  0  0  0
  1 18  1  0  0  0  0
 15 18  1  0  0  0  0
 18 19  1  0  0  0  0
 18 20  1  0  0  0  0
 13 21  1  0  0  0  0
 21 22  1  0  0  0  0
M  END
> <VConfSearch Rank>
85

> <Conf_Id>
41

> <Delta U+W>
-2.114

> <U+W>
4.310

> <U>
6.598

> <W>
-2.289

> <W(PB)>
-4.294

> <W(SA)>
2.005

> <Valence>
12.082

> <Coulomb>
-7.801

> <VdW>
2.317

> <VdW6>
-9.658

> <VdW12>
11.975

> <Bond>
0.267

> <Angle>
3.051

> <Pdih>
8.764

> <Idih>
0.000

> <Tether>
0.000

$$$$
VeraChem MOL file


 22 22  0  0  0  0  0  0  0  0999 V2000     
   19.5250   18.2208   23.5680 C   0  0  0  0  0  0  0  0  0  0  0  0
   19.2070   17.5041   24.3372 H   0  0  0  0  0  0  0  0  0  0  0  0
   19.0595   17.8916   22.6288 H   0  0  0  0  0  0  0  0  0  0  0  0
   21.0654   18.1549   23.4669 C   0  0  0  0  0  0  0  0  0  0  0  0
   21.5115   18.5462   24.3913 H   0  0  0  0  0  0  0  0  0  0  0  0
   21.3684   17.1007   23.4091 H   0  0  0  0  0  0  0  0  0  0  0  0
   21.6636   18.8972   22.2518 C   0  0  0  0  0  0  0  0  0  0  0  0
   21.3845   18.3716   21.3289 H   0  0  0  0  0  0  0  0  0  0  0  0
   22.7575   18.8213   22.3139 H   0  0  0  0  0  0  0  0  0  0  0  0
   21.2837   20.3989   22.1434 C   0  0  0  0  0  0  0  0  0  0  0  0
   21.4907   20.9093   23.0926 H   0  0  0  0  0  0  0  0  0  0  0  0
   21.9552   20.8590   21.4071 H   0  0  0  0  0  0  0  0  0  0  0  0
   19.8324   20.7010   21.6891 C   0  0  0  0  0  0  0  0  0  0  0  0
   19.8175   21.7494   21.3578 H   0  0  0  0  0  0  0  0  0  0  0  0
   18.7412   20.5795   22.7844 C   0  0  0  0  0  0  0  0  0  0  0  0
   18.5669   21.5799   23.2012 H   0  0  0  0  0  0  0  0  0  0  0  0
   17.7915   20.2943   22.3131 H   0  0  0  0  0  0  0  0  0  0  0  0
   19.0128   19.6214   23.9706 C   0  0  0  0  0  0  0  0  0  0  0  0
   19.7173   20.0873   24.6727 H   0  0  0  0  0  0  0  0  0  0  0  0
   18.0743   19.5047   24.5295 H   0  0  0  0  0  0  0  0  0  0  0  0
   19.4815   19.8906   20.5705 O   0  0  0  0  0  0  0  0  0  0  0  0
   18.5765   20.1519   20.3050 H   0  0  0  0  0  0  0  0  0  0  0  0
  1  2  1  0  0  0  0
  1  3  1  0  0  0  0
  1  4  1  0  0  0  0
  4  5  1  0  0  0  0
  4  6  1  0  0  0  0
  4  7  1  0  0  0  0
  7  8  1  0  0  0  0
  7  9  1  0  0  0  0
  7 10  1  0  0  0  0
 10 11  1  0  0  0  0
 10 12  1  0  0  0  0
 10 13  1  0  0  0  0
 13 14  1  0  0  0  0
 13 15  1  0  0  0  0
 15 16  1  0  0  0  0
 15 17  1  0  0  0  0
  1 18  1  0  0  0  0
 15 18  1  0  0  0  0
 18 19  1  0  0  0  0
 18 20  1  0  0  0  0
 13 21  1  0  0  0  0
 21 22  1  0  0  0  0
M  END
> <VConfSearch Rank>
86

> <Conf_Id>
104

> <Delta U+W>
-1.172

> <U+W>
5.252

> <U>
7.482

> <W>
-2.230

> <W(PB)>
-4.220

> <W(SA)>
1.990

> <Valence>
12.309

> <Coulomb>
-7.084

> <VdW>
2.258

> <VdW6>
-9.770

> <VdW12>
12.028

> <Bond>
0.284

> <Angle>
3.491

> <Pdih>
8.535

> <Idih>
0.000

> <Tether>
0.000

$$$$
VeraChem MOL file


 22 22  0  0  0  0  0  0  0  0999 V2000     
   20.6112   21.1203   22.9082 C   0  0  0  0  0  0  0  0  0  0  0  0
   19.6230   21.4945   23.2080 H   0  0  0  0  0  0  0  0  0  0  0  0
   21.2847   21.9878   22.9381 H   0  0  0  0  0  0  0  0  0  0  0  0
   20.5844   20.5925   21.4555 C   0  0  0  0  0  0  0  0  0  0  0  0
   20.6407   21.4496   20.7703 H   0  0  0  0  0  0  0  0  0  0  0  0
   21.4971   20.0139   21.2619 H   0  0  0  0  0  0  0  0  0  0  0  0
   19.3371   19.7589   21.0668 C   0  0  0  0  0  0  0  0  0  0  0  0
   19.6103   19.0891   20.2398 H   0  0  0  0  0  0  0  0  0  0  0  0
   18.5801   20.4389   20.6527 H   0  0  0  0  0  0  0  0  0  0  0  0
   18.6569   18.9302   22.1901 C   0  0  0  0  0  0  0  0  0  0  0  0
   18.0358   19.5971   22.8021 H   0  0  0  0  0  0  0  0  0  0  0  0
   17.9519   18.2338   21.7178 H   0  0  0  0  0  0  0  0  0  0  0  0
   19.5821   18.1172   23.1244 C   0  0  0  0  0  0  0  0  0  0  0  0
   18.9747   17.3163   23.5700 H   0  0  0  0  0  0  0  0  0  0  0  0
   20.1414   18.9574   24.2947 C   0  0  0  0  0  0  0  0  0  0  0  0
   19.2999   19.3981   24.8448 H   0  0  0  0  0  0  0  0  0  0  0  0
   20.6318   18.2755   25.0017 H   0  0  0  0  0  0  0  0  0  0  0  0
   21.1416   20.0802   23.9236 C   0  0  0  0  0  0  0  0  0  0  0  0
   21.4127   20.6081   24.8481 H   0  0  0  0  0  0  0  0  0  0  0  0
   22.0759   19.6387   23.5513 H   0  0  0  0  0  0  0  0  0  0  0  0
   20.6462   17.5340   22.3883 O   0  0  0  0  0  0  0  0  0  0  0  0
   21.0844   18.2954   21.9587 H   0  0  0  0  0  0  0  0  0  0  0  0
  1  2  1  0  0  0  0
  1  3  1  0  0  0  0
  1  4  1  0  0  0  0
  4  5  1  0  0  0  0
  4  6  1  0  0  0  0
  4  7  1  0  0  0  0
  7  8  1  0  0  0  0
  7  9  1  0  0  0  0
  7 10  1  0  0  0  0
 10 11  1  0  0  0  0
 10 12  1  0  0  0  0
 10 13  1  0  0  0  0
 13 14  1  0  0  0  0
 13 15  1  0  0  0  0
 15 16  1  0  0  0  0
 15 17  1  0  0  0  0
  1 18  1  0  0  0  0
 15 18  1  0  0  0  0
 18 19  1  0  0  0  0
 18 20  1  0  0  0  0
 13 21  1  0  0  0  0
 21 22  1  0  0  0  0
M  END
> <VConfSearch Rank>
87

> <Conf_Id>
99

> <Delta U+W>
-3.852

> <U+W>
2.572

> <U>
3.922

> <W>
-1.350

> <W(PB)>
-3.345

> <W(SA)>
1.995

> <Valence>
12.571

> <Coulomb>
-10.581

> <VdW>
1.932

> <VdW6>
-10.483

> <VdW12>
12.415

> <Bond>
0.268

> <Angle>
3.728

> <Pdih>
8.575

> <Idih>
0.000

> <Tether>
0.000

$$$$
VeraChem MOL file


 22 22  0  0  0  0  0  0  0  0999 V2000     
   18.4580   19.6085   23.0837 C   0  0  0  0  0  0  0  0  0  0  0  0
   17.6454   19.6492   23.8221 H   0  0  0  0  0  0  0  0  0  0  0  0
   17.9533   19.5734   22.1089 H   0  0  0  0  0  0  0  0  0  0  0  0
   19.2548   18.2925   23.3229 C   0  0  0  0  0  0  0  0  0  0  0  0
   18.7869   17.7636   24.1647 H   0  0  0  0  0  0  0  0  0  0  0  0
   19.1376   17.6178   22.4643 H   0  0  0  0  0  0  0  0  0  0  0  0
   20.7608   18.4604   23.6491 C   0  0  0  0  0  0  0  0  0  0  0  0
   21.1532   17.4902   23.9830 H   0  0  0  0  0  0  0  0  0  0  0  0
   20.8803   19.1197   24.5178 H   0  0  0  0  0  0  0  0  0  0  0  0
   21.6587   18.9606   22.4836 C   0  0  0  0  0  0  0  0  0  0  0  0
   22.5653   19.4041   22.9151 H   0  0  0  0  0  0  0  0  0  0  0  0
   22.0056   18.0880   21.9140 H   0  0  0  0  0  0  0  0  0  0  0  0
   21.0540   19.9666   21.4734 C   0  0  0  0  0  0  0  0  0  0  0  0
   21.8896   20.3646   20.8800 H   0  0  0  0  0  0  0  0  0  0  0  0
   20.3125   21.1837   22.0791 C   0  0  0  0  0  0  0  0  0  0  0  0
   21.0599   21.8901   22.4626 H   0  0  0  0  0  0  0  0  0  0  0  0
   19.8121   21.7097   21.2552 H   0  0  0  0  0  0  0  0  0  0  0  0
   19.2691   20.9242   23.2011 C   0  0  0  0  0  0  0  0  0  0  0  0
   19.7599   20.9705   24.1811 H   0  0  0  0  0  0  0  0  0  0  0  0
   18.5640   21.7666   23.2055 H   0  0  0  0  0  0  0  0  0  0  0  0
   20.1927   19.2820   20.5774 O   0  0  0  0  0  0  0  0  0  0  0  0
   19.4721   18.9498   21.1495 H   0  0  0  0  0  0  0  0  0  0  0  0
  1  2  1  0  0  0  0
  1  3  1  0  0  0  0
  1  4  1  0  0  0  0
  4  5  1  0  0  0  0
  4  6  1  0  0  0  0
  4  7  1  0  0  0  0
  7  8  1  0  0  0  0
  7  9  1  0  0  0  0
  7 10  1  0  0  0  0
 10 11  1  0  0  0  0
 10 12  1  0  0  0  0
 10 13  1  0  0  0  0
 13 14  1  0  0  0  0
 13 15  1  0  0  0  0
 15 16  1  0  0  0  0
 15 17  1  0  0  0  0
  1 18  1  0  0  0  0
 15 18  1  0  0  0  0
 18 19  1  0  0  0  0
 18 20  1  0  0  0  0
 13 21  1  0  0  0  0
 21 22  1  0  0  0  0
M  END
> <VConfSearch Rank>
88

> <Conf_Id>
98

> <Delta U+W>
0.930

> <U+W>
7.353

> <U>
8.455

> <W>
-1.102

> <W(PB)>
-3.101

> <W(SA)>
2.000

> <Valence>
15.601

> <Coulomb>
-10.573

> <VdW>
3.427

> <VdW6>
-11.360

> <VdW12>
14.787

> <Bond>
0.471

> <Angle>
5.445

> <Pdih>
9.685

> <Idih>
0.000

> <Tether>
0.000

$$$$
VeraChem MOL file


 22 22  0  0  0  0  0  0  0  0999 V2000     
   20.1604   17.9884   23.3931 C   0  0  0  0  0  0  0  0  0  0  0  0
   21.1334   18.3207   23.7775 H   0  0  0  0  0  0  0  0  0  0  0  0
   20.0168   16.9829   23.8116 H   0  0  0  0  0  0  0  0  0  0  0  0
   20.2180   17.8762   21.8484 C   0  0  0  0  0  0  0  0  0  0  0  0
   21.0089   17.1559   21.5984 H   0  0  0  0  0  0  0  0  0  0  0  0
   19.2840   17.4331   21.4768 H   0  0  0  0  0  0  0  0  0  0  0  0
   20.5015   19.1935   21.0744 C   0  0  0  0  0  0  0  0  0  0  0  0
   19.5734   19.5765   20.6306 H   0  0  0  0  0  0  0  0  0  0  0  0
   21.1470   18.9554   20.2180 H   0  0  0  0  0  0  0  0  0  0  0  0
   21.1764   20.3139   21.9092 C   0  0  0  0  0  0  0  0  0  0  0  0
   22.0687   19.9078   22.4017 H   0  0  0  0  0  0  0  0  0  0  0  0
   21.5590   21.0765   21.2175 H   0  0  0  0  0  0  0  0  0  0  0  0
   20.2751   21.0056   22.9736 C   0  0  0  0  0  0  0  0  0  0  0  0
   20.8481   21.0744   23.9096 H   0  0  0  0  0  0  0  0  0  0  0  0
   18.9295   20.3023   23.2815 C   0  0  0  0  0  0  0  0  0  0  0  0
   18.3374   20.9435   23.9474 H   0  0  0  0  0  0  0  0  0  0  0  0
   18.3367   20.2212   22.3625 H   0  0  0  0  0  0  0  0  0  0  0  0
   19.0458   18.9076   23.9456 C   0  0  0  0  0  0  0  0  0  0  0  0
   19.2149   19.0399   25.0230 H   0  0  0  0  0  0  0  0  0  0  0  0
   18.0780   18.3961   23.8531 H   0  0  0  0  0  0  0  0  0  0  0  0
   19.9750   22.3218   22.5232 O   0  0  0  0  0  0  0  0  0  0  0  0
   19.4572   22.7528   23.2348 H   0  0  0  0  0  0  0  0  0  0  0  0
  1  2  1  0  0  0  0
  1  3  1  0  0  0  0
  1  4  1  0  0  0  0
  4  5  1  0  0  0  0
  4  6  1  0  0  0  0
  4  7  1  0  0  0  0
  7  8  1  0  0  0  0
  7  9  1  0  0  0  0
  7 10  1  0  0  0  0
 10 11  1  0  0  0  0
 10 12  1  0  0  0  0
 10 13  1  0  0  0  0
 13 14  1  0  0  0  0
 13 15  1  0  0  0  0
 15 16  1  0  0  0  0
 15 17  1  0  0  0  0
  1 18  1  0  0  0  0
 15 18  1  0  0  0  0
 18 19  1  0  0  0  0
 18 20  1  0  0  0  0
 13 21  1  0  0  0  0
 21 22  1  0  0  0  0
M  END
> <VConfSearch Rank>
89

> <Conf_Id>
141

> <Delta U+W>
0.000

> <U+W>
6.423

> <U>
8.781

> <W>
-2.358

> <W(PB)>
-4.373

> <W(SA)>
2.015

> <Valence>
13.328

> <Coulomb>
-8.387

> <VdW>
3.840

> <VdW6>
-9.744

> <VdW12>
13.584

> <Bond>
0.436

> <Angle>
3.478

> <Pdih>
9.415

> <Idih>
0.000

> <Tether>
0.000

$$$$
VeraChem MOL file


 22 22  0  0  0  0  0  0  0  0999 V2000     
   18.8619   20.2763   21.4946 C   0  0  0  0  0  0  0  0  0  0  0  0
   18.2861   19.3425   21.5509 H   0  0  0  0  0  0  0  0  0  0  0  0
   18.3025   20.9377   20.8188 H   0  0  0  0  0  0  0  0  0  0  0  0
   20.2544   20.0309   20.8651 C   0  0  0  0  0  0  0  0  0  0  0  0
   20.1194   19.7779   19.8046 H   0  0  0  0  0  0  0  0  0  0  0  0
   20.8297   20.9668   20.8776 H   0  0  0  0  0  0  0  0  0  0  0  0
   21.0883   18.9093   21.5260 C   0  0  0  0  0  0  0  0  0  0  0  0
   22.0717   18.8804   21.0372 H   0  0  0  0  0  0  0  0  0  0  0  0
   20.6216   17.9368   21.3179 H   0  0  0  0  0  0  0  0  0  0  0  0
   21.2995   19.0639   23.0520 C   0  0  0  0  0  0  0  0  0  0  0  0
   22.0815   18.3543   23.3525 H   0  0  0  0  0  0  0  0  0  0  0  0
   21.6860   20.0633   23.2902 H   0  0  0  0  0  0  0  0  0  0  0  0
   20.0178   18.7716   23.8642 C   0  0  0  0  0  0  0  0  0  0  0  0
   19.4427   17.9994   23.3335 H   0  0  0  0  0  0  0  0  0  0  0  0
   19.1007   19.9971   24.0794 C   0  0  0  0  0  0  0  0  0  0  0  0
   18.1095   19.6228   24.3662 H   0  0  0  0  0  0  0  0  0  0  0  0
   19.4638   20.5763   24.9390 H   0  0  0  0  0  0  0  0  0  0  0  0
   18.9394   20.9625   22.8785 C   0  0  0  0  0  0  0  0  0  0  0  0
   18.0254   21.5511   23.0365 H   0  0  0  0  0  0  0  0  0  0  0  0
   19.7618   21.6907   22.8794 H   0  0  0  0  0  0  0  0  0  0  0  0
   20.3895   18.2695   25.1421 O   0  0  0  0  0  0  0  0  0  0  0  0
   20.9057   17.4514   24.9846 H   0  0  0  0  0  0  0  0  0  0  0  0
  1  2  1  0  0  0  0
  1  3  1  0  0  0  0
  1  4  1  0  0  0  0
  4  5  1  0  0  0  0
  4  6  1  0  0  0  0
  4  7  1  0  0  0  0
  7  8  1  0  0  0  0
  7  9  1  0  0  0  0
  7 10  1  0  0  0  0
 10 11  1  0  0  0  0
 10 12  1  0  0  0  0
 10 13  1  0  0  0  0
 13 14  1  0  0  0  0
 13 15  1  0  0  0  0
 15 16  1  0  0  0  0
 15 17  1  0  0  0  0
  1 18  1  0  0  0  0
 15 18  1  0  0  0  0
 18 19  1  0  0  0  0
 18 20  1  0  0  0  0
 13 21  1  0  0  0  0
 21 22  1  0  0  0  0
M  END
> <VConfSearch Rank>
90

> <Conf_Id>
144

> <Delta U+W>
-3.291

> <U+W>
3.132

> <U>
5.411

> <W>
-2.279

> <W(PB)>
-4.300

> <W(SA)>
2.021

> <Valence>
11.909

> <Coulomb>
-8.733

> <VdW>
2.236

> <VdW6>
-8.936

> <VdW12>
11.172

> <Bond>
0.223

> <Angle>
2.457

> <Pdih>
9.228

> <Idih>
0.000

> <Tether>
0.000

$$$$
VeraChem MOL file


 22 22  0  0  0  0  0  0  0  0999 V2000     
   18.7500   18.3245   22.9328 C   0  0  0  0  0  0  0  0  0  0  0  0
   18.0738   17.5902   23.3916 H   0  0  0  0  0  0  0  0  0  0  0  0
   18.5567   18.2820   21.8523 H   0  0  0  0  0  0  0  0  0  0  0  0
   20.2031   17.9000   23.2498 C   0  0  0  0  0  0  0  0  0  0  0  0
   20.4758   18.2516   24.2541 H   0  0  0  0  0  0  0  0  0  0  0  0
   20.2499   16.8035   23.3007 H   0  0  0  0  0  0  0  0  0  0  0  0
   21.2636   18.3752   22.2273 C   0  0  0  0  0  0  0  0  0  0  0  0
   21.2891   17.6704   21.3850 H   0  0  0  0  0  0  0  0  0  0  0  0
   22.2517   18.3076   22.7027 H   0  0  0  0  0  0  0  0  0  0  0  0
   21.0756   19.8023   21.6561 C   0  0  0  0  0  0  0  0  0  0  0  0
   22.0358   20.1224   21.2294 H   0  0  0  0  0  0  0  0  0  0  0  0
   20.3735   19.7636   20.8132 H   0  0  0  0  0  0  0  0  0  0  0  0
   20.5893   20.8543   22.6781 C   0  0  0  0  0  0  0  0  0  0  0  0
   21.0152   20.6315   23.6668 H   0  0  0  0  0  0  0  0  0  0  0  0
   19.0481   20.9143   22.7789 C   0  0  0  0  0  0  0  0  0  0  0  0
   18.7661   21.8312   23.3135 H   0  0  0  0  0  0  0  0  0  0  0  0
   18.6185   21.0054   21.7728 H   0  0  0  0  0  0  0  0  0  0  0  0
   18.3902   19.7167   23.5047 C   0  0  0  0  0  0  0  0  0  0  0  0
   18.6493   19.7509   24.5718 H   0  0  0  0  0  0  0  0  0  0  0  0
   17.3001   19.8438   23.4574 H   0  0  0  0  0  0  0  0  0  0  0  0
   21.0491   22.1317   22.2575 O   0  0  0  0  0  0  0  0  0  0  0  0
   20.6517   22.2926   21.3769 H   0  0  0  0  0  0  0  0  0  0  0  0
  1  2  1  0  0  0  0
  1  3  1  0  0  0  0
  1  4  1  0  0  0  0
  4  5  1  0  0  0  0
  4  6  1  0  0  0  0
  4  7  1  0  0  0  0
  7  8  1  0  0  0  0
  7  9  1  0  0  0  0
  7 10  1  0  0  0  0
 10 11  1  0  0  0  0
 10 12  1  0  0  0  0
 10 13  1  0  0  0  0
 13 14  1  0  0  0  0
 13 15  1  0  0  0  0
 15 16  1  0  0  0  0
 15 17  1  0  0  0  0
  1 18  1  0  0  0  0
 15 18  1  0  0  0  0
 18 19  1  0  0  0  0
 18 20  1  0  0  0  0
 13 21  1  0  0  0  0
 21 22  1  0  0  0  0
M  END
> <VConfSearch Rank>
91

> <Conf_Id>
76

> <Delta U+W>
-3.175

> <U+W>
3.248

> <U>
5.336

> <W>
-2.088

> <W(PB)>
-4.098

> <W(SA)>
2.010

> <Valence>
12.390

> <Coulomb>
-9.270

> <VdW>
2.216

> <VdW6>
-8.967

> <VdW12>
11.183

> <Bond>
0.218

> <Angle>
2.426

> <Pdih>
9.745

> <Idih>
0.000

> <Tether>
0.000

$$$$
VeraChem MOL file


 22 22  0  0  0  0  0  0  0  0999 V2000     
   18.8551   18.1985   22.2439 C   0  0  0  0  0  0  0  0  0  0  0  0
   17.8387   18.3195   21.8451 H   0  0  0  0  0  0  0  0  0  0  0  0
   19.0452   17.1165   22.2521 H   0  0  0  0  0  0  0  0  0  0  0  0
   18.8688   18.7210   23.7005 C   0  0  0  0  0  0  0  0  0  0  0  0
   18.2097   19.5958   23.7823 H   0  0  0  0  0  0  0  0  0  0  0  0
   18.4167   17.9517   24.3413 H   0  0  0  0  0  0  0  0  0  0  0  0
   20.2679   19.0775   24.2545 C   0  0  0  0  0  0  0  0  0  0  0  0
   21.0269   18.3712   23.8912 H   0  0  0  0  0  0  0  0  0  0  0  0
   20.2420   18.9617   25.3464 H   0  0  0  0  0  0  0  0  0  0  0  0
   20.6816   20.5386   23.9447 C   0  0  0  0  0  0  0  0  0  0  0  0
   19.8743   21.2152   24.2529 H   0  0  0  0  0  0  0  0  0  0  0  0
   21.5419   20.8001   24.5746 H   0  0  0  0  0  0  0  0  0  0  0  0
   21.0553   20.8460   22.4767 C   0  0  0  0  0  0  0  0  0  0  0  0
   21.1418   21.9391   22.3938 H   0  0  0  0  0  0  0  0  0  0  0  0
   20.0156   20.3899   21.4225 C   0  0  0  0  0  0  0  0  0  0  0  0
   19.0406   20.8445   21.6406 H   0  0  0  0  0  0  0  0  0  0  0  0
   20.3241   20.8025   20.4532 H   0  0  0  0  0  0  0  0  0  0  0  0
   19.8623   18.8542   21.2694 C   0  0  0  0  0  0  0  0  0  0  0  0
   19.5338   18.6320   20.2452 H   0  0  0  0  0  0  0  0  0  0  0  0
   20.8401   18.3658   21.3733 H   0  0  0  0  0  0  0  0  0  0  0  0
   22.3283   20.2771   22.1870 O   0  0  0  0  0  0  0  0  0  0  0  0
   22.5015   20.4494   21.2390 H   0  0  0  0  0  0  0  0  0  0  0  0
  1  2  1  0  0  0  0
  1  3  1  0  0  0  0
  1  4  1  0  0  0  0
  4  5  1  0  0  0  0
  4  6  1  0  0  0  0
  4  7  1  0  0  0  0
  7  8  1  0  0  0  0
  7  9  1  0  0  0  0
  7 10  1  0  0  0  0
 10 11  1  0  0  0  0
 10 12  1  0  0  0  0
 10 13  1  0  0  0  0
 13 14  1  0  0  0  0
 13 15  1  0  0  0  0
 15 16  1  0  0  0  0
 15 17  1  0  0  0  0
  1 18  1  0  0  0  0
 15 18  1  0  0  0  0
 18 19  1  0  0  0  0
 18 20  1  0  0  0  0
 13 21  1  0  0  0  0
 21 22  1  0  0  0  0
M  END
> <VConfSearch Rank>
92

> <Conf_Id>
95

> <Delta U+W>
-2.289

> <U+W>
4.134

> <U>
6.373

> <W>
-2.240

> <W(PB)>
-4.254

> <W(SA)>
2.015

> <Valence>
12.093

> <Coulomb>
-8.058

> <VdW>
2.339

> <VdW6>
-9.683

> <VdW12>
12.022

> <Bond>
0.268

> <Angle>
3.005

> <Pdih>
8.820

> <Idih>
0.000

> <Tether>
0.000

$$$$
VeraChem MOL file


 22 22  0  0  0  0  0  0  0  0999 V2000     
   20.3989   18.5212   21.1898 C   0  0  0  0  0  0  0  0  0  0  0  0
   20.3086   17.4290   21.1148 H   0  0  0  0  0  0  0  0  0  0  0  0
   20.7009   18.8645   20.1910 H   0  0  0  0  0  0  0  0  0  0  0  0
   21.5303   18.8454   22.1943 C   0  0  0  0  0  0  0  0  0  0  0  0
   21.5216   18.1059   23.0064 H   0  0  0  0  0  0  0  0  0  0  0  0
   22.4909   18.7051   21.6802 H   0  0  0  0  0  0  0  0  0  0  0  0
   21.4854   20.2699   22.7947 C   0  0  0  0  0  0  0  0  0  0  0  0
   21.1608   21.0030   22.0437 H   0  0  0  0  0  0  0  0  0  0  0  0
   22.5089   20.5533   23.0751 H   0  0  0  0  0  0  0  0  0  0  0  0
   20.6064   20.3542   24.0680 C   0  0  0  0  0  0  0  0  0  0  0  0
   20.8999   19.5546   24.7604 H   0  0  0  0  0  0  0  0  0  0  0  0
   20.8360   21.2912   24.5916 H   0  0  0  0  0  0  0  0  0  0  0  0
   19.0780   20.2813   23.8477 C   0  0  0  0  0  0  0  0  0  0  0  0
   18.6185   20.1776   24.8413 H   0  0  0  0  0  0  0  0  0  0  0  0
   18.5927   19.0819   22.9955 C   0  0  0  0  0  0  0  0  0  0  0  0
   18.9217   18.1400   23.4528 H   0  0  0  0  0  0  0  0  0  0  0  0
   17.4962   19.0719   23.0445 H   0  0  0  0  0  0  0  0  0  0  0  0
   19.0080   19.1232   21.5018 C   0  0  0  0  0  0  0  0  0  0  0  0
   18.2622   18.5722   20.9132 H   0  0  0  0  0  0  0  0  0  0  0  0
   18.9645   20.1557   21.1308 H   0  0  0  0  0  0  0  0  0  0  0  0
   18.6246   21.5040   23.2748 O   0  0  0  0  0  0  0  0  0  0  0  0
   18.9712   22.2248   23.8391 H   0  0  0  0  0  0  0  0  0  0  0  0
  1  2  1  0  0  0  0
  1  3  1  0  0  0  0
  1  4  1  0  0  0  0
  4  5  1  0  0  0  0
  4  6  1  0  0  0  0
  4  7  1  0  0  0  0
  7  8  1  0  0  0  0
  7  9  1  0  0  0  0
  7 10  1  0  0  0  0
 10 11  1  0  0  0  0
 10 12  1  0  0  0  0
 10 13  1  0  0  0  0
 13 14  1  0  0  0  0
 13 15  1  0  0  0  0
 15 16  1  0  0  0  0
 15 17  1  0  0  0  0
  1 18  1  0  0  0  0
 15 18  1  0  0  0  0
 18 19  1  0  0  0  0
 18 20  1  0  0  0  0
 13 21  1  0  0  0  0
 21 22  1  0  0  0  0
M  END
> <VConfSearch Rank>
93

> <Conf_Id>
41

> <Delta U+W>
-2.114

> <U+W>
4.310

> <U>
6.598

> <W>
-2.289

> <W(PB)>
-4.294

> <W(SA)>
2.005

> <Valence>
12.082

> <Coulomb>
-7.801

> <VdW>
2.317

> <VdW6>
-9.658

> <VdW12>
11.975

> <Bond>
0.267

> <Angle>
3.051

> <Pdih>
8.764

> <Idih>
0.000

> <Tether>
0.000

$$$$
VeraChem MOL file


 22 22  0  0  0  0  0  0  0  0999 V2000     
   20.6455   17.9877   22.4711 C   0  0  0  0  0  0  0  0  0  0  0  0
   21.1550   17.0796   22.1211 H   0  0  0  0  0  0  0  0  0  0  0  0
   20.2776   17.7643   23.4820 H   0  0  0  0  0  0  0  0  0  0  0  0
   19.4682   18.2703   21.5111 C   0  0  0  0  0  0  0  0  0  0  0  0
   19.8585   18.5518   20.5237 H   0  0  0  0  0  0  0  0  0  0  0  0
   18.9082   17.3376   21.3588 H   0  0  0  0  0  0  0  0  0  0  0  0
   18.4815   19.3519   22.0028 C   0  0  0  0  0  0  0  0  0  0  0  0
   17.9344   18.9768   22.8780 H   0  0  0  0  0  0  0  0  0  0  0  0
   17.7228   19.4976   21.2222 H   0  0  0  0  0  0  0  0  0  0  0  0
   19.1203   20.7298   22.3262 C   0  0  0  0  0  0  0  0  0  0  0  0
   19.7310   21.0698   21.4802 H   0  0  0  0  0  0  0  0  0  0  0  0
   18.3061   21.4602   22.4164 H   0  0  0  0  0  0  0  0  0  0  0  0
   19.9473   20.8041   23.6356 C   0  0  0  0  0  0  0  0  0  0  0  0
   20.0517   21.8706   23.8825 H   0  0  0  0  0  0  0  0  0  0  0  0
   21.3884   20.2362   23.5590 C   0  0  0  0  0  0  0  0  0  0  0  0
   22.0716   21.0720   23.3595 H   0  0  0  0  0  0  0  0  0  0  0  0
   21.6770   19.8583   24.5486 H   0  0  0  0  0  0  0  0  0  0  0  0
   21.6763   19.1376   22.5060 C   0  0  0  0  0  0  0  0  0  0  0  0
   21.7624   19.5900   21.5088 H   0  0  0  0  0  0  0  0  0  0  0  0
   22.6666   18.7150   22.7239 H   0  0  0  0  0  0  0  0  0  0  0  0
   19.2425   20.1810   24.7062 O   0  0  0  0  0  0  0  0  0  0  0  0
   19.7909   20.2935   25.5090 H   0  0  0  0  0  0  0  0  0  0  0  0
  1  2  1  0  0  0  0
  1  3  1  0  0  0  0
  1  4  1  0  0  0  0
  4  5  1  0  0  0  0
  4  6  1  0  0  0  0
  4  7  1  0  0  0  0
  7  8  1  0  0  0  0
  7  9  1  0  0  0  0
  7 10  1  0  0  0  0
 10 11  1  0  0  0  0
 10 12  1  0  0  0  0
 10 13  1  0  0  0  0
 13 14  1  0  0  0  0
 13 15  1  0  0  0  0
 15 16  1  0  0  0  0
 15 17  1  0  0  0  0
  1 18  1  0  0  0  0
 15 18  1  0  0  0  0
 18 19  1  0  0  0  0
 18 20  1  0  0  0  0
 13 21  1  0  0  0  0
 21 22  1  0  0  0  0
M  END
> <VConfSearch Rank>
94

> <Conf_Id>
104

> <Delta U+W>
-1.172

> <U+W>
5.252

> <U>
7.482

> <W>
-2.230

> <W(PB)>
-4.220

> <W(SA)>
1.990

> <Valence>
12.309

> <Coulomb>
-7.084

> <VdW>
2.258

> <VdW6>
-9.770

> <VdW12>
12.028

> <Bond>
0.284

> <Angle>
3.491

> <Pdih>
8.535

> <Idih>
0.000

> <Tether>
0.000

$$$$
VeraChem MOL file


 22 22  0  0  0  0  0  0  0  0999 V2000     
   20.0064   21.2287   22.7661 C   0  0  0  0  0  0  0  0  0  0  0  0
   19.0348   21.2883   22.2571 H   0  0  0  0  0  0  0  0  0  0  0  0
   20.3028   22.2660   22.9739 H   0  0  0  0  0  0  0  0  0  0  0  0
   21.0773   20.6074   21.8405 C   0  0  0  0  0  0  0  0  0  0  0  0
   21.4287   21.3803   21.1431 H   0  0  0  0  0  0  0  0  0  0  0  0
   21.9603   20.3390   22.4352 H   0  0  0  0  0  0  0  0  0  0  0  0
   20.6146   19.3896   21.0011 C   0  0  0  0  0  0  0  0  0  0  0  0
   21.4958   18.7799   20.7579 H   0  0  0  0  0  0  0  0  0  0  0  0
   20.2386   19.7557   20.0360 H   0  0  0  0  0  0  0  0  0  0  0  0
   19.5178   18.4778   21.6149 C   0  0  0  0  0  0  0  0  0  0  0  0
   18.5386   18.9561   21.4835 H   0  0  0  0  0  0  0  0  0  0  0  0
   19.4703   17.5570   21.0191 H   0  0  0  0  0  0  0  0  0  0  0  0
   19.6813   18.0812   23.1001 C   0  0  0  0  0  0  0  0  0  0  0  0
   19.0942   17.1655   23.2606 H   0  0  0  0  0  0  0  0  0  0  0  0
   19.1224   19.1460   24.0707 C   0  0  0  0  0  0  0  0  0  0  0  0
   18.0711   19.3353   23.8175 H   0  0  0  0  0  0  0  0  0  0  0  0
   19.1101   18.7156   25.0806 H   0  0  0  0  0  0  0  0  0  0  0  0
   19.8770   20.4975   24.1235 C   0  0  0  0  0  0  0  0  0  0  0  0
   19.3397   21.1556   24.8198 H   0  0  0  0  0  0  0  0  0  0  0  0
   20.8723   20.3513   24.5644 H   0  0  0  0  0  0  0  0  0  0  0  0
   21.0430   17.8143   23.3980 O   0  0  0  0  0  0  0  0  0  0  0  0
   21.5069   18.6396   23.1533 H   0  0  0  0  0  0  0  0  0  0  0  0
  1  2  1  0  0  0  0
  1  3  1  0  0  0  0
  1  4  1  0  0  0  0
  4  5  1  0  0  0  0
  4  6  1  0  0  0  0
  4  7  1  0  0  0  0
  7  8  1  0  0  0  0
  7  9  1  0  0  0  0
  7 10  1  0  0  0  0
 10 11  1  0  0  0  0
 10 12  1  0  0  0  0
 10 13  1  0  0  0  0
 13 14  1  0  0  0  0
 13 15  1  0  0  0  0
 15 16  1  0  0  0  0
 15 17  1  0  0  0  0
  1 18  1  0  0  0  0
 15 18  1  0  0  0  0
 18 19  1  0  0  0  0
 18 20  1  0  0  0  0
 13 21  1  0  0  0  0
 21 22  1  0  0  0  0
M  END
> <VConfSearch Rank>
95

> <Conf_Id>
99

> <Delta U+W>
-3.852

> <U+W>
2.572

> <U>
3.922

> <W>
-1.350

> <W(PB)>
-3.345

> <W(SA)>
1.995

> <Valence>
12.571

> <Coulomb>
-10.581

> <VdW>
1.932

> <VdW6>
-10.483

> <VdW12>
12.415

> <Bond>
0.268

> <Angle>
3.728

> <Pdih>
8.575

> <Idih>
0.000

> <Tether>
0.000

$$$$
VeraChem MOL file


 22 22  0  0  0  0  0  0  0  0999 V2000     
   19.3856   18.9816   21.2872 C   0  0  0  0  0  0  0  0  0  0  0  0
   19.4139   18.7480   20.2140 H   0  0  0  0  0  0  0  0  0  0  0  0
   18.4092   18.6149   21.6311 H   0  0  0  0  0  0  0  0  0  0  0  0
   19.4621   20.5290   21.4412 C   0  0  0  0  0  0  0  0  0  0  0  0
   19.5233   20.9651   20.4345 H   0  0  0  0  0  0  0  0  0  0  0  0
   18.5229   20.9144   21.8600 H   0  0  0  0  0  0  0  0  0  0  0  0
   20.6585   21.0711   22.2642 C   0  0  0  0  0  0  0  0  0  0  0  0
   20.7042   22.1608   22.1325 H   0  0  0  0  0  0  0  0  0  0  0  0
   21.5993   20.7023   21.8371 H   0  0  0  0  0  0  0  0  0  0  0  0
   20.6245   20.7779   23.7899 C   0  0  0  0  0  0  0  0  0  0  0  0
   21.6502   20.8452   24.1750 H   0  0  0  0  0  0  0  0  0  0  0  0
   20.0745   21.5882   24.2866 H   0  0  0  0  0  0  0  0  0  0  0  0
   20.0099   19.4379   24.2642 C   0  0  0  0  0  0  0  0  0  0  0  0
   20.2812   19.3192   25.3230 H   0  0  0  0  0  0  0  0  0  0  0  0
   20.4950   18.1637   23.5300 C   0  0  0  0  0  0  0  0  0  0  0  0
   21.5052   17.9218   23.8845 H   0  0  0  0  0  0  0  0  0  0  0  0
   19.8633   17.3294   23.8629 H   0  0  0  0  0  0  0  0  0  0  0  0
   20.5152   18.1741   21.9762 C   0  0  0  0  0  0  0  0  0  0  0  0
   21.4917   18.5260   21.6209 H   0  0  0  0  0  0  0  0  0  0  0  0
   20.4556   17.1324   21.6324 H   0  0  0  0  0  0  0  0  0  0  0  0
   18.5945   19.5144   24.2006 O   0  0  0  0  0  0  0  0  0  0  0  0
   18.4061   19.6185   23.2463 H   0  0  0  0  0  0  0  0  0  0  0  0
  1  2  1  0  0  0  0
  1  3  1  0  0  0  0
  1  4  1  0  0  0  0
  4  5  1  0  0  0  0
  4  6  1  0  0  0  0
  4  7  1  0  0  0  0
  7  8  1  0  0  0  0
  7  9  1  0  0  0  0
  7 10  1  0  0  0  0
 10 11  1  0  0  0  0
 10 12  1  0  0  0  0
 10 13  1  0  0  0  0
 13 14  1  0  0  0  0
 13 15  1  0  0  0  0
 15 16  1  0  0  0  0
 15 17  1  0  0  0  0
  1 18  1  0  0  0  0
 15 18  1  0  0  0  0
 18 19  1  0  0  0  0
 18 20  1  0  0  0  0
 13 21  1  0  0  0  0
 21 22  1  0  0  0  0
M  END
> <VConfSearch Rank>
96

> <Conf_Id>
98

> <Delta U+W>
0.930

> <U+W>
7.353

> <U>
8.455

> <W>
-1.102

> <W(PB)>
-3.101

> <W(SA)>
2.000

> <Valence>
15.601

> <Coulomb>
-10.573

> <VdW>
3.427

> <VdW6>
-11.360

> <VdW12>
14.787

> <Bond>
0.471

> <Angle>
5.445

> <Pdih>
9.685

> <Idih>
0.000

> <Tether>
0.000

$$$$
VeraChem MOL file


 22 22  0  0  0  0  0  0  0  0999 V2000     
   20.6431   18.3730   23.7564 C   0  0  0  0  0  0  0  0  0  0  0  0
   21.5734   18.4005   23.1746 H   0  0  0  0  0  0  0  0  0  0  0  0
   20.8498   17.6914   24.5927 H   0  0  0  0  0  0  0  0  0  0  0  0
   19.5049   17.7674   22.8962 C   0  0  0  0  0  0  0  0  0  0  0  0
   19.8164   16.7563   22.6002 H   0  0  0  0  0  0  0  0  0  0  0  0
   18.6077   17.6328   23.5155 H   0  0  0  0  0  0  0  0  0  0  0  0
   19.1246   18.5520   21.6100 C   0  0  0  0  0  0  0  0  0  0  0  0
   18.1910   19.1068   21.7698 H   0  0  0  0  0  0  0  0  0  0  0  0
   18.8894   17.8240   20.8217 H   0  0  0  0  0  0  0  0  0  0  0  0
   20.2174   19.5194   21.0831 C   0  0  0  0  0  0  0  0  0  0  0  0
   21.1644   18.9740   20.9859 H   0  0  0  0  0  0  0  0  0  0  0  0
   19.9541   19.8115   20.0575 H   0  0  0  0  0  0  0  0  0  0  0  0
   20.4524   20.8053   21.9287 C   0  0  0  0  0  0  0  0  0  0  0  0
   21.5372   20.9351   22.0536 H   0  0  0  0  0  0  0  0  0  0  0  0
   19.7992   20.8206   23.3334 C   0  0  0  0  0  0  0  0  0  0  0  0
   19.9316   21.8163   23.7762 H   0  0  0  0  0  0  0  0  0  0  0  0
   18.7142   20.6933   23.2373 H   0  0  0  0  0  0  0  0  0  0  0  0
   20.3545   19.7780   24.3356 C   0  0  0  0  0  0  0  0  0  0  0  0
   21.2853   20.1652   24.7721 H   0  0  0  0  0  0  0  0  0  0  0  0
   19.6461   19.6853   25.1700 H   0  0  0  0  0  0  0  0  0  0  0  0
   19.9385   21.9192   21.2074 O   0  0  0  0  0  0  0  0  0  0  0  0
   20.1502   22.7185   21.7333 H   0  0  0  0  0  0  0  0  0  0  0  0
  1  2  1  0  0  0  0
  1  3  1  0  0  0  0
  1  4  1  0  0  0  0
  4  5  1  0  0  0  0
  4  6  1  0  0  0  0
  4  7  1  0  0  0  0
  7  8  1  0  0  0  0
  7  9  1  0  0  0  0
  7 10  1  0  0  0  0
 10 11  1  0  0  0  0
 10 12  1  0  0  0  0
 10 13  1  0  0  0  0
 13 14  1  0  0  0  0
 13 15  1  0  0  0  0
 15 16  1  0  0  0  0
 15 17  1  0  0  0  0
  1 18  1  0  0  0  0
 15 18  1  0  0  0  0
 18 19  1  0  0  0  0
 18 20  1  0  0  0  0
 13 21  1  0  0  0  0
 21 22  1  0  0  0  0
M  END
> <VConfSearch Rank>
97

> <Conf_Id>
141

> <Delta U+W>
0.000

> <U+W>
6.423

> <U>
8.781

> <W>
-2.358

> <W(PB)>
-4.373

> <W(SA)>
2.015

> <Valence>
13.328

> <Coulomb>
-8.387

> <VdW>
3.840

> <VdW6>
-9.744

> <VdW12>
13.584

> <Bond>
0.436

> <Angle>
3.478

> <Pdih>
9.415

> <Idih>
0.000

> <Tether>
0.000

$$$$
VeraChem MOL file


 22 22  0  0  0  0  0  0  0  0999 V2000     
   21.2479   19.1406   21.5444 C   0  0  0  0  0  0  0  0  0  0  0  0
   20.6102   18.3122   21.2074 H   0  0  0  0  0  0  0  0  0  0  0  0
   22.1513   19.1016   20.9205 H   0  0  0  0  0  0  0  0  0  0  0  0
   21.6843   18.9401   23.0158 C   0  0  0  0  0  0  0  0  0  0  0  0
   22.3718   18.0845   23.0634 H   0  0  0  0  0  0  0  0  0  0  0  0
   22.2683   19.8107   23.3443 H   0  0  0  0  0  0  0  0  0  0  0  0
   20.5329   18.6897   24.0167 C   0  0  0  0  0  0  0  0  0  0  0  0
   20.9630   18.6321   25.0259 H   0  0  0  0  0  0  0  0  0  0  0  0
   20.0895   17.7033   23.8233 H   0  0  0  0  0  0  0  0  0  0  0  0
   19.4191   19.7651   24.0148 C   0  0  0  0  0  0  0  0  0  0  0  0
   18.7994   19.6027   24.9064 H   0  0  0  0  0  0  0  0  0  0  0  0
   19.8500   20.7691   24.1211 H   0  0  0  0  0  0  0  0  0  0  0  0
   18.5211   19.6917   22.7595 C   0  0  0  0  0  0  0  0  0  0  0  0
   18.4490   18.6394   22.4490 H   0  0  0  0  0  0  0  0  0  0  0  0
   19.0303   20.5183   21.5567 C   0  0  0  0  0  0  0  0  0  0  0  0
   18.5195   20.1464   20.6592 H   0  0  0  0  0  0  0  0  0  0  0  0
   18.7118   21.5629   21.6728 H   0  0  0  0  0  0  0  0  0  0  0  0
   20.5583   20.5035   21.3016 C   0  0  0  0  0  0  0  0  0  0  0  0
   20.7317   20.8108   20.2612 H   0  0  0  0  0  0  0  0  0  0  0  0
   21.0414   21.2725   21.9196 H   0  0  0  0  0  0  0  0  0  0  0  0
   17.2213   20.1601   23.0976 O   0  0  0  0  0  0  0  0  0  0  0  0
   16.8869   19.5753   23.8095 H   0  0  0  0  0  0  0  0  0  0  0  0
  1  2  1  0  0  0  0
  1  3  1  0  0  0  0
  1  4  1  0  0  0  0
  4  5  1  0  0  0  0
  4  6  1  0  0  0  0
  4  7  1  0  0  0  0
  7  8  1  0  0  0  0
  7  9  1  0  0  0  0
  7 10  1  0  0  0  0
 10 11  1  0  0  0  0
 10 12  1  0  0  0  0
 10 13  1  0  0  0  0
 13 14  1  0  0  0  0
 13 15  1  0  0  0  0
 15 16  1  0  0  0  0
 15 17  1  0  0  0  0
  1 18  1  0  0  0  0
 15 18  1  0  0  0  0
 18 19  1  0  0  0  0
 18 20  1  0  0  0  0
 13 21  1  0  0  0  0
 21 22  1  0  0  0  0
M  END
> <VConfSearch Rank>
98

> <Conf_Id>
144

> <Delta U+W>
-3.291

> <U+W>
3.132

> <U>
5.411

> <W>
-2.279

> <W(PB)>
-4.300

> <W(SA)>
2.021

> <Valence>
11.909

> <Coulomb>
-8.733

> <VdW>
2.236

> <VdW6>
-8.936

> <VdW12>
11.172

> <Bond>
0.223

> <Angle>
2.457

> <Pdih>
9.228

> <Idih>
0.000

> <Tether>
0.000

$$$$
VeraChem MOL file


 22 22  0  0  0  0  0  0  0  0999 V2000     
   21.0300   19.5021   23.9995 C   0  0  0  0  0  0  0  0  0  0  0  0
   21.8352   19.2435   24.7006 H   0  0  0  0  0  0  0  0  0  0  0  0
   20.5107   20.3651   24.4380 H   0  0  0  0  0  0  0  0  0  0  0  0
   20.0815   18.2853   23.8904 C   0  0  0  0  0  0  0  0  0  0  0  0
   20.4953   17.5622   23.1745 H   0  0  0  0  0  0  0  0  0  0  0  0
   20.0619   17.7624   24.8564 H   0  0  0  0  0  0  0  0  0  0  0  0
   18.6219   18.6236   23.5019 C   0  0  0  0  0  0  0  0  0  0  0  0
   18.0700   18.9158   24.4058 H   0  0  0  0  0  0  0  0  0  0  0  0
   18.1409   17.7031   23.1436 H   0  0  0  0  0  0  0  0  0  0  0  0
   18.4338   19.7363   22.4414 C   0  0  0  0  0  0  0  0  0  0  0  0
   17.4204   19.6394   22.0291 H   0  0  0  0  0  0  0  0  0  0  0  0
   18.4609   20.7152   22.9373 H   0  0  0  0  0  0  0  0  0  0  0  0
   19.4631   19.7187   21.2891 C   0  0  0  0  0  0  0  0  0  0  0  0
   19.7395   18.6801   21.0581 H   0  0  0  0  0  0  0  0  0  0  0  0
   20.7350   20.5329   21.6183 C   0  0  0  0  0  0  0  0  0  0  0  0
   21.3000   20.6931   20.6902 H   0  0  0  0  0  0  0  0  0  0  0  0
   20.4490   21.5308   21.9753 H   0  0  0  0  0  0  0  0  0  0  0  0
   21.6853   19.8786   22.6490 C   0  0  0  0  0  0  0  0  0  0  0  0
   22.1446   18.9850   22.2047 H   0  0  0  0  0  0  0  0  0  0  0  0
   22.5126   20.5749   22.8433 H   0  0  0  0  0  0  0  0  0  0  0  0
   18.8586   20.2990   20.1411 O   0  0  0  0  0  0  0  0  0  0  0  0
   18.6260   21.2184   20.3858 H   0  0  0  0  0  0  0  0  0  0  0  0
  1  2  1  0  0  0  0
  1  3  1  0  0  0  0
  1  4  1  0  0  0  0
  4  5  1  0  0  0  0
  4  6  1  0  0  0  0
  4  7  1  0  0  0  0
  7  8  1  0  0  0  0
  7  9  1  0  0  0  0
  7 10  1  0  0  0  0
 10 11  1  0  0  0  0
 10 12  1  0  0  0  0
 10 13  1  0  0  0  0
 13 14  1  0  0  0  0
 13 15  1  0  0  0  0
 15 16  1  0  0  0  0
 15 17  1  0  0  0  0
  1 18  1  0  0  0  0
 15 18  1  0  0  0  0
 18 19  1  0  0  0  0
 18 20  1  0  0  0  0
 13 21  1  0  0  0  0
 21 22  1  0  0  0  0
M  END
> <VConfSearch Rank>
99

> <Conf_Id>
76

> <Delta U+W>
-3.175

> <U+W>
3.248

> <U>
5.336

> <W>
-2.088

> <W(PB)>
-4.098

> <W(SA)>
2.010

> <Valence>
12.390

> <Coulomb>
-9.270

> <VdW>
2.216

> <VdW6>
-8.967

> <VdW12>
11.183

> <Bond>
0.218

> <Angle>
2.426

> <Pdih>
9.745

> <Idih>
0.000

> <Tether>
0.000

$$$$
VeraChem MOL file


 22 22  0  0  0  0  0  0  0  0999 V2000     
   18.2735   20.0474   22.4542 C   0  0  0  0  0  0  0  0  0  0  0  0
   17.8683   20.7553   21.7184 H   0  0  0  0  0  0  0  0  0  0  0  0
   17.4019   19.6229   22.9708 H   0  0  0  0  0  0  0  0  0  0  0  0
   19.1228   20.8428   23.4743 C   0  0  0  0  0  0  0  0  0  0  0  0
   19.6489   21.6568   22.9576 H   0  0  0  0  0  0  0  0  0  0  0  0
   18.4364   21.3359   24.1761 H   0  0  0  0  0  0  0  0  0  0  0  0
   20.1411   19.9996   24.2766 C   0  0  0  0  0  0  0  0  0  0  0  0
   19.7282   19.0113   24.5206 H   0  0  0  0  0  0  0  0  0  0  0  0
   20.3178   20.5017   25.2373 H   0  0  0  0  0  0  0  0  0  0  0  0
   21.5070   19.8640   23.5569 C   0  0  0  0  0  0  0  0  0  0  0  0
   21.8599   20.8604   23.2618 H   0  0  0  0  0  0  0  0  0  0  0  0
   22.2468   19.4906   24.2771 H   0  0  0  0  0  0  0  0  0  0  0  0
   21.5380   18.9385   22.3193 C   0  0  0  0  0  0  0  0  0  0  0  0
   22.5101   19.0958   21.8301 H   0  0  0  0  0  0  0  0  0  0  0  0
   20.4435   19.2187   21.2591 C   0  0  0  0  0  0  0  0  0  0  0  0
   20.5107   20.2610   20.9216 H   0  0  0  0  0  0  0  0  0  0  0  0
   20.6726   18.6068   20.3771 H   0  0  0  0  0  0  0  0  0  0  0  0
   18.9939   18.8991   21.7080 C   0  0  0  0  0  0  0  0  0  0  0  0
   18.3968   18.6466   20.8214 H   0  0  0  0  0  0  0  0  0  0  0  0
   18.9832   17.9960   22.3323 H   0  0  0  0  0  0  0  0  0  0  0  0
   21.4706   17.5814   22.7457 O   0  0  0  0  0  0  0  0  0  0  0  0
   21.4403   17.0352   21.9339 H   0  0  0  0  0  0  0  0  0  0  0  0
  1  2  1  0  0  0  0
  1  3  1  0  0  0  0
  1  4  1  0  0  0  0
  4  5  1  0  0  0  0
  4  6  1  0  0  0  0
  4  7  1  0  0  0  0
  7  8  1  0  0  0  0
  7  9  1  0  0  0  0
  7 10  1  0  0  0  0
 10 11  1  0  0  0  0
 10 12  1  0  0  0  0
 10 13  1  0  0  0  0
 13 14  1  0  0  0  0
 13 15  1  0  0  0  0
 15 16  1  0  0  0  0
 15 17  1  0  0  0  0
  1 18  1  0  0  0  0
 15 18  1  0  0  0  0
 18 19  1  0  0  0  0
 18 20  1  0  0  0  0
 13 21  1  0  0  0  0
 21 22  1  0  0  0  0
M  END
> <VConfSearch Rank>
100

> <Conf_Id>
95

> <Delta U+W>
-2.289

> <U+W>
4.134

> <U>
6.373

> <W>
-2.240

> <W(PB)>
-4.254

> <W(SA)>
2.015

> <Valence>
12.093

> <Coulomb>
-8.058

> <VdW>
2.339

> <VdW6>
-9.683

> <VdW12>
12.022

> <Bond>
0.268

> <Angle>
3.005

> <Pdih>
8.820

> <Idih>
0.000

> <Tether>
0.000

$$$$
VeraChem MOL file


 22 22  0  0  0  0  0  0  0  0999 V2000     
   21.3770   20.7543   21.9249 C   0  0  0  0  0  0  0  0  0  0  0  0
   21.6568   21.7750   22.2194 H   0  0  0  0  0  0  0  0  0  0  0  0
   22.0526   20.4860   21.1013 H   0  0  0  0  0  0  0  0  0  0  0  0
   19.9248   20.7855   21.3915 C   0  0  0  0  0  0  0  0  0  0  0  0
   19.3380   21.5119   21.9699 H   0  0  0  0  0  0  0  0  0  0  0  0
   19.9484   21.1779   20.3657 H   0  0  0  0  0  0  0  0  0  0  0  0
   19.1976   19.4206   21.3904 C   0  0  0  0  0  0  0  0  0  0  0  0
   19.8869   18.6080   21.1233 H   0  0  0  0  0  0  0  0  0  0  0  0
   18.4329   19.4432   20.6023 H   0  0  0  0  0  0  0  0  0  0  0  0
   18.4834   19.1230   22.7330 C   0  0  0  0  0  0  0  0  0  0  0  0
   17.8700   19.9892   23.0130 H   0  0  0  0  0  0  0  0  0  0  0  0
   17.7725   18.3011   22.5777 H   0  0  0  0  0  0  0  0  0  0  0  0
   19.3971   18.7579   23.9253 C   0  0  0  0  0  0  0  0  0  0  0  0
   18.7613   18.7520   24.8225 H   0  0  0  0  0  0  0  0  0  0  0  0
   20.5545   19.7518   24.1955 C   0  0  0  0  0  0  0  0  0  0  0  0
   20.1520   20.7588   24.3637 H   0  0  0  0  0  0  0  0  0  0  0  0
   21.0230   19.4541   25.1425 H   0  0  0  0  0  0  0  0  0  0  0  0
   21.6565   19.7931   23.1049 C   0  0  0  0  0  0  0  0  0  0  0  0
   22.6029   20.0980   23.5713 H   0  0  0  0  0  0  0  0  0  0  0  0
   21.8369   18.7815   22.7180 H   0  0  0  0  0  0  0  0  0  0  0  0
   19.9139   17.4437   23.7391 O   0  0  0  0  0  0  0  0  0  0  0  0
   19.1473   16.8632   23.5562 H   0  0  0  0  0  0  0  0  0  0  0  0
  1  2  1  0  0  0  0
  1  3  1  0  0  0  0
  1  4  1  0  0  0  0
  4  5  1  0  0  0  0
  4  6  1  0  0  0  0
  4  7  1  0  0  0  0
  7  8  1  0  0  0  0
  7  9  1  0  0  0  0
  7 10  1  0  0  0  0
 10 11  1  0  0  0  0
 10 12  1  0  0  0  0
 10 13  1  0  0  0  0
 13 14  1  0  0  0  0
 13 15  1  0  0  0  0
 15 16  1  0  0  0  0
 15 17  1  0  0  0  0
  1 18  1  0  0  0  0
 15 18  1  0  0  0  0
 18 19  1  0  0  0  0
 18 20  1  0  0  0  0
 13 21  1  0  0  0  0
 21 22  1  0  0  0  0
M  END
> <VConfSearch Rank>
101

> <Conf_Id>
41

> <Delta U+W>
-2.114

> <U+W>
4.310

> <U>
6.598

> <W>
-2.289

> <W(PB)>
-4.294

> <W(SA)>
2.005

> <Valence>
12.082

> <Coulomb>
-7.801

> <VdW>
2.317

> <VdW6>
-9.658

> <VdW12>
11.975

> <Bond>
0.267

> <Angle>
3.051

> <Pdih>
8.764

> <Idih>
0.000

> <Tether>
0.000

$$$$
VeraChem MOL file


 22 22  0  0  0  0  0  0  0  0999 V2000     
   18.9136   18.9309   21.6982 C   0  0  0  0  0  0  0  0  0  0  0  0
   17.9895   18.5533   21.2399 H   0  0  0  0  0  0  0  0  0  0  0  0
   19.5679   19.2324   20.8686 H   0  0  0  0  0  0  0  0  0  0  0  0
   19.5494   17.7757   22.5036 C   0  0  0  0  0  0  0  0  0  0  0  0
   18.9104   17.5317   23.3631 H   0  0  0  0  0  0  0  0  0  0  0  0
   19.5640   16.8756   21.8741 H   0  0  0  0  0  0  0  0  0  0  0  0
   20.9890   18.0472   22.9924 C   0  0  0  0  0  0  0  0  0  0  0  0
   21.6676   18.0807   22.1297 H   0  0  0  0  0  0  0  0  0  0  0  0
   21.3128   17.1830   23.5877 H   0  0  0  0  0  0  0  0  0  0  0  0
   21.1628   19.3268   23.8548 C   0  0  0  0  0  0  0  0  0  0  0  0
   20.4319   19.3316   24.6733 H   0  0  0  0  0  0  0  0  0  0  0  0
   22.1472   19.2712   24.3369 H   0  0  0  0  0  0  0  0  0  0  0  0
   21.1046   20.6742   23.0897 C   0  0  0  0  0  0  0  0  0  0  0  0
   21.5515   21.4313   23.7501 H   0  0  0  0  0  0  0  0  0  0  0  0
   19.6857   21.1922   22.7383 C   0  0  0  0  0  0  0  0  0  0  0  0
   19.3782   21.8959   23.5227 H   0  0  0  0  0  0  0  0  0  0  0  0
   19.7408   21.7910   21.8197 H   0  0  0  0  0  0  0  0  0  0  0  0
   18.5540   20.1466   22.5807 C   0  0  0  0  0  0  0  0  0  0  0  0
   18.2233   19.8029   23.5701 H   0  0  0  0  0  0  0  0  0  0  0  0
   17.6857   20.6555   22.1405 H   0  0  0  0  0  0  0  0  0  0  0  0
   21.8983   20.6108   21.9078 O   0  0  0  0  0  0  0  0  0  0  0  0
   21.8559   21.4952   21.4909 H   0  0  0  0  0  0  0  0  0  0  0  0
  1  2  1  0  0  0  0
  1  3  1  0  0  0  0
  1  4  1  0  0  0  0
  4  5  1  0  0  0  0
  4  6  1  0  0  0  0
  4  7  1  0  0  0  0
  7  8  1  0  0  0  0
  7  9  1  0  0  0  0
  7 10  1  0  0  0  0
 10 11  1  0  0  0  0
 10 12  1  0  0  0  0
 10 13  1  0  0  0  0
 13 14  1  0  0  0  0
 13 15  1  0  0  0  0
 15 16  1  0  0  0  0
 15 17  1  0  0  0  0
  1 18  1  0  0  0  0
 15 18  1  0  0  0  0
 18 19  1  0  0  0  0
 18 20  1  0  0  0  0
 13 21  1  0  0  0  0
 21 22  1  0  0  0  0
M  END
> <VConfSearch Rank>
102

> <Conf_Id>
104

> <Delta U+W>
-1.172

> <U+W>
5.252

> <U>
7.482

> <W>
-2.230

> <W(PB)>
-4.220

> <W(SA)>
1.990

> <Valence>
12.309

> <Coulomb>
-7.084

> <VdW>
2.258

> <VdW6>
-9.770

> <VdW12>
12.028

> <Bond>
0.284

> <Angle>
3.491

> <Pdih>
8.535

> <Idih>
0.000

> <Tether>
0.000

$$$$
VeraChem MOL file


 22 22  0  0  0  0  0  0  0  0999 V2000     
   20.7546   20.9676   23.2384 C   0  0  0  0  0  0  0  0  0  0  0  0
   21.2820   21.1681   22.2960 H   0  0  0  0  0  0  0  0  0  0  0  0
   21.0448   21.7749   23.9247 H   0  0  0  0  0  0  0  0  0  0  0  0
   21.2203   19.6302   23.8581 C   0  0  0  0  0  0  0  0  0  0  0  0
   22.1801   19.7952   24.3669 H   0  0  0  0  0  0  0  0  0  0  0  0
   20.5238   19.3362   24.6542 H   0  0  0  0  0  0  0  0  0  0  0  0
   21.4099   18.4584   22.8617 C   0  0  0  0  0  0  0  0  0  0  0  0
   21.2903   17.5134   23.4093 H   0  0  0  0  0  0  0  0  0  0  0  0
   22.4520   18.4634   22.5138 H   0  0  0  0  0  0  0  0  0  0  0  0
   20.4976   18.4381   21.6053 C   0  0  0  0  0  0  0  0  0  0  0  0
   20.8903   19.1473   20.8652 H   0  0  0  0  0  0  0  0  0  0  0  0
   20.5907   17.4506   21.1349 H   0  0  0  0  0  0  0  0  0  0  0  0
   18.9945   18.7275   21.8214 C   0  0  0  0  0  0  0  0  0  0  0  0
   18.4526   18.2984   20.9663 H   0  0  0  0  0  0  0  0  0  0  0  0
   18.6711   20.2385   21.8425 C   0  0  0  0  0  0  0  0  0  0  0  0
   19.0386   20.6897   20.9117 H   0  0  0  0  0  0  0  0  0  0  0  0
   17.5798   20.3553   21.8167 H   0  0  0  0  0  0  0  0  0  0  0  0
   19.2218   21.0468   23.0435 C   0  0  0  0  0  0  0  0  0  0  0  0
   18.9471   22.0999   22.8943 H   0  0  0  0  0  0  0  0  0  0  0  0
   18.7123   20.7369   23.9659 H   0  0  0  0  0  0  0  0  0  0  0  0
   18.5347   18.1120   23.0147 O   0  0  0  0  0  0  0  0  0  0  0  0
   19.1147   18.4792   23.7112 H   0  0  0  0  0  0  0  0  0  0  0  0
  1  2  1  0  0  0  0
  1  3  1  0  0  0  0
  1  4  1  0  0  0  0
  4  5  1  0  0  0  0
  4  6  1  0  0  0  0
  4  7  1  0  0  0  0
  7  8  1  0  0  0  0
  7  9  1  0  0  0  0
  7 10  1  0  0  0  0
 10 11  1  0  0  0  0
 10 12  1  0  0  0  0
 10 13  1  0  0  0  0
 13 14  1  0  0  0  0
 13 15  1  0  0  0  0
 15 16  1  0  0  0  0
 15 17  1  0  0  0  0
  1 18  1  0  0  0  0
 15 18  1  0  0  0  0
 18 19  1  0  0  0  0
 18 20  1  0  0  0  0
 13 21  1  0  0  0  0
 21 22  1  0  0  0  0
M  END
> <VConfSearch Rank>
103

> <Conf_Id>
99

> <Delta U+W>
-3.852

> <U+W>
2.572

> <U>
3.922

> <W>
-1.350

> <W(PB)>
-3.345

> <W(SA)>
1.995

> <Valence>
12.571

> <Coulomb>
-10.581

> <VdW>
1.932

> <VdW6>
-10.483

> <VdW12>
12.415

> <Bond>
0.268

> <Angle>
3.728

> <Pdih>
8.575

> <Idih>
0.000

> <Tether>
0.000

$$$$
VeraChem MOL file


 22 22  0  0  0  0  0  0  0  0999 V2000     
   19.7168   20.7594   21.5412 C   0  0  0  0  0  0  0  0  0  0  0  0
   19.5472   21.0825   20.5048 H   0  0  0  0  0  0  0  0  0  0  0  0
   19.5569   21.6604   22.1484 H   0  0  0  0  0  0  0  0  0  0  0  0
   21.1962   20.2889   21.6587 C   0  0  0  0  0  0  0  0  0  0  0  0
   21.6671   20.4086   20.6731 H   0  0  0  0  0  0  0  0  0  0  0  0
   21.7555   20.9612   22.3230 H   0  0  0  0  0  0  0  0  0  0  0  0
   21.4082   18.8207   22.1081 C   0  0  0  0  0  0  0  0  0  0  0  0
   22.4662   18.5632   21.9628 H   0  0  0  0  0  0  0  0  0  0  0  0
   20.8653   18.1454   21.4353 H   0  0  0  0  0  0  0  0  0  0  0  0
   21.0393   18.4998   23.5832 C   0  0  0  0  0  0  0  0  0  0  0  0
   20.8534   17.4210   23.6633 H   0  0  0  0  0  0  0  0  0  0  0  0
   21.9207   18.6895   24.2102 H   0  0  0  0  0  0  0  0  0  0  0  0
   19.8441   19.2516   24.2190 C   0  0  0  0  0  0  0  0  0  0  0  0
   19.6049   18.7341   25.1591 H   0  0  0  0  0  0  0  0  0  0  0  0
   18.5399   19.2948   23.3850 C   0  0  0  0  0  0  0  0  0  0  0  0
   18.0585   18.3101   23.4419 H   0  0  0  0  0  0  0  0  0  0  0  0
   17.8489   19.9850   23.8872 H   0  0  0  0  0  0  0  0  0  0  0  0
   18.6383   19.7015   21.8884 C   0  0  0  0  0  0  0  0  0  0  0  0
   18.7845   18.8069   21.2704 H   0  0  0  0  0  0  0  0  0  0  0  0
   17.6585   20.0920   21.5813 H   0  0  0  0  0  0  0  0  0  0  0  0
   20.2375   20.5724   24.5564 O   0  0  0  0  0  0  0  0  0  0  0  0
   20.4377   20.9871   23.6933 H   0  0  0  0  0  0  0  0  0  0  0  0
  1  2  1  0  0  0  0
  1  3  1  0  0  0  0
  1  4  1  0  0  0  0
  4  5  1  0  0  0  0
  4  6  1  0  0  0  0
  4  7  1  0  0  0  0
  7  8  1  0  0  0  0
  7  9  1  0  0  0  0
  7 10  1  0  0  0  0
 10 11  1  0  0  0  0
 10 12  1  0  0  0  0
 10 13  1  0  0  0  0
 13 14  1  0  0  0  0
 13 15  1  0  0  0  0
 15 16  1  0  0  0  0
 15 17  1  0  0  0  0
  1 18  1  0  0  0  0
 15 18  1  0  0  0  0
 18 19  1  0  0  0  0
 18 20  1  0  0  0  0
 13 21  1  0  0  0  0
 21 22  1  0  0  0  0
M  END
> <VConfSearch Rank>
104

> <Conf_Id>
98

> <Delta U+W>
0.930

> <U+W>
7.353

> <U>
8.455

> <W>
-1.102

> <W(PB)>
-3.101

> <W(SA)>
2.000

> <Valence>
15.601

> <Coulomb>
-10.573

> <VdW>
3.427

> <VdW6>
-11.360

> <VdW12>
14.787

> <Bond>
0.471

> <Angle>
5.445

> <Pdih>
9.685

> <Idih>
0.000

> <Tether>
0.000

$$$$
VeraChem MOL file


 22 22  0  0  0  0  0  0  0  0999 V2000     
   20.6663   20.6361   23.8023 C   0  0  0  0  0  0  0  0  0  0  0  0
   21.6519   20.2096   23.5754 H   0  0  0  0  0  0  0  0  0  0  0  0
   20.8637   21.4449   24.5189 H   0  0  0  0  0  0  0  0  0  0  0  0
   19.7805   19.5691   24.4944 C   0  0  0  0  0  0  0  0  0  0  0  0
   20.2966   19.2557   25.4121 H   0  0  0  0  0  0  0  0  0  0  0  0
   18.8399   20.0302   24.8248 H   0  0  0  0  0  0  0  0  0  0  0  0
   19.4605   18.2971   23.6613 C   0  0  0  0  0  0  0  0  0  0  0  0
   18.4337   18.3477   23.2764 H   0  0  0  0  0  0  0  0  0  0  0  0
   19.4657   17.4331   24.3396 H   0  0  0  0  0  0  0  0  0  0  0  0
   20.4385   18.0154   22.4900 C   0  0  0  0  0  0  0  0  0  0  0  0
   21.4678   18.0291   22.8695 H   0  0  0  0  0  0  0  0  0  0  0  0
   20.2785   16.9841   22.1475 H   0  0  0  0  0  0  0  0  0  0  0  0
   20.3310   18.9746   21.2685 C   0  0  0  0  0  0  0  0  0  0  0  0
   21.3495   19.2756   20.9835 H   0  0  0  0  0  0  0  0  0  0  0  0
   19.4914   20.2581   21.4874 C   0  0  0  0  0  0  0  0  0  0  0  0
   19.3899   20.7842   20.5293 H   0  0  0  0  0  0  0  0  0  0  0  0
   18.4682   19.9856   21.7728 H   0  0  0  0  0  0  0  0  0  0  0  0
   20.0660   21.2596   22.5203 C   0  0  0  0  0  0  0  0  0  0  0  0
   20.8466   21.8616   22.0354 H   0  0  0  0  0  0  0  0  0  0  0  0
   19.2719   21.9650   22.8003 H   0  0  0  0  0  0  0  0  0  0  0  0
   19.7449   18.2613   20.1856 O   0  0  0  0  0  0  0  0  0  0  0  0
   19.7420   18.8680   19.4161 H   0  0  0  0  0  0  0  0  0  0  0  0
  1  2  1  0  0  0  0
  1  3  1  0  0  0  0
  1  4  1  0  0  0  0
  4  5  1  0  0  0  0
  4  6  1  0  0  0  0
  4  7  1  0  0  0  0
  7  8  1  0  0  0  0
  7  9  1  0  0  0  0
  7 10  1  0  0  0  0
 10 11  1  0  0  0  0
 10 12  1  0  0  0  0
 10 13  1  0  0  0  0
 13 14  1  0  0  0  0
 13 15  1  0  0  0  0
 15 16  1  0  0  0  0
 15 17  1  0  0  0  0
  1 18  1  0  0  0  0
 15 18  1  0  0  0  0
 18 19  1  0  0  0  0
 18 20  1  0  0  0  0
 13 21  1  0  0  0  0
 21 22  1  0  0  0  0
M  END
> <VConfSearch Rank>
105

> <Conf_Id>
141

> <Delta U+W>
0.000

> <U+W>
6.423

> <U>
8.781

> <W>
-2.358

> <W(PB)>
-4.373

> <W(SA)>
2.015

> <Valence>
13.328

> <Coulomb>
-8.387

> <VdW>
3.840

> <VdW6>
-9.744

> <VdW12>
13.584

> <Bond>
0.436

> <Angle>
3.478

> <Pdih>
9.415

> <Idih>
0.000

> <Tether>
0.000

$$$$
VeraChem MOL file


 22 22  0  0  0  0  0  0  0  0999 V2000     
   20.1789   20.9745   21.5813 C   0  0  0  0  0  0  0  0  0  0  0  0
   21.2287   20.6836   21.4404 H   0  0  0  0  0  0  0  0  0  0  0  0
   20.0130   21.8400   20.9254 H   0  0  0  0  0  0  0  0  0  0  0  0
   19.9220   21.4325   23.0373 C   0  0  0  0  0  0  0  0  0  0  0  0
   20.4495   22.3815   23.2038 H   0  0  0  0  0  0  0  0  0  0  0  0
   18.8544   21.6581   23.1650 H   0  0  0  0  0  0  0  0  0  0  0  0
   20.3680   20.4346   24.1307 C   0  0  0  0  0  0  0  0  0  0  0  0
   20.0721   20.8418   25.1072 H   0  0  0  0  0  0  0  0  0  0  0  0
   21.4651   20.3798   24.1491 H   0  0  0  0  0  0  0  0  0  0  0  0
   19.7827   19.0079   23.9924 C   0  0  0  0  0  0  0  0  0  0  0  0
   19.9798   18.4757   24.9322 H   0  0  0  0  0  0  0  0  0  0  0  0
   18.6908   19.0459   23.8861 H   0  0  0  0  0  0  0  0  0  0  0  0
   20.4128   18.2152   22.8253 C   0  0  0  0  0  0  0  0  0  0  0  0
   21.4604   18.5322   22.7199 H   0  0  0  0  0  0  0  0  0  0  0  0
   19.7082   18.4091   21.4632 C   0  0  0  0  0  0  0  0  0  0  0  0
   20.4040   18.0800   20.6806 H   0  0  0  0  0  0  0  0  0  0  0  0
   18.8446   17.7335   21.4014 H   0  0  0  0  0  0  0  0  0  0  0  0
   19.2261   19.8431   21.1293 C   0  0  0  0  0  0  0  0  0  0  0  0
   19.0846   19.9090   20.0419 H   0  0  0  0  0  0  0  0  0  0  0  0
   18.2314   20.0072   21.5656 H   0  0  0  0  0  0  0  0  0  0  0  0
   20.3829   16.8292   23.1436 O   0  0  0  0  0  0  0  0  0  0  0  0
   20.8990   16.7180   23.9693 H   0  0  0  0  0  0  0  0  0  0  0  0
  1  2  1  0  0  0  0
  1  3  1  0  0  0  0
  1  4  1  0  0  0  0
  4  5  1  0  0  0  0
  4  6  1  0  0  0  0
  4  7  1  0  0  0  0
  7  8  1  0  0  0  0
  7  9  1  0  0  0  0
  7 10  1  0  0  0  0
 10 11  1  0  0  0  0
 10 12  1  0  0  0  0
 10 13  1  0  0  0  0
 13 14  1  0  0  0  0
 13 15  1  0  0  0  0
 15 16  1  0  0  0  0
 15 17  1  0  0  0  0
  1 18  1  0  0  0  0
 15 18  1  0  0  0  0
 18 19  1  0  0  0  0
 18 20  1  0  0  0  0
 13 21  1  0  0  0  0
 21 22  1  0  0  0  0
M  END
> <VConfSearch Rank>
106

> <Conf_Id>
144

> <Delta U+W>
-3.291

> <U+W>
3.132

> <U>
5.411

> <W>
-2.279

> <W(PB)>
-4.300

> <W(SA)>
2.021

> <Valence>
11.909

> <Coulomb>
-8.733

> <VdW>
2.236

> <VdW6>
-8.936

> <VdW12>
11.172

> <Bond>
0.223

> <Angle>
2.457

> <Pdih>
9.228

> <Idih>
0.000

> <Tether>
0.000

$$$$
VeraChem MOL file


 22 22  0  0  0  0  0  0  0  0999 V2000     
   20.0863   19.8518   20.9527 C   0  0  0  0  0  0  0  0  0  0  0  0
   20.3292   19.7866   19.8832 H   0  0  0  0  0  0  0  0  0  0  0  0
   19.4974   20.7710   21.0750 H   0  0  0  0  0  0  0  0  0  0  0  0
   21.4145   19.9393   21.7403 C   0  0  0  0  0  0  0  0  0  0  0  0
   21.8250   18.9297   21.8781 H   0  0  0  0  0  0  0  0  0  0  0  0
   22.1546   20.4755   21.1307 H   0  0  0  0  0  0  0  0  0  0  0  0
   21.3191   20.6526   23.1107 C   0  0  0  0  0  0  0  0  0  0  0  0
   21.3923   21.7376   22.9547 H   0  0  0  0  0  0  0  0  0  0  0  0
   22.2024   20.3763   23.7027 H   0  0  0  0  0  0  0  0  0  0  0  0
   20.0451   20.3704   23.9446 C   0  0  0  0  0  0  0  0  0  0  0  0
   20.2558   20.6516   24.9853 H   0  0  0  0  0  0  0  0  0  0  0  0
   19.2412   21.0398   23.6124 H   0  0  0  0  0  0  0  0  0  0  0  0
   19.5455   18.9090   23.8966 C   0  0  0  0  0  0  0  0  0  0  0  0
   20.4056   18.2280   23.8256 H   0  0  0  0  0  0  0  0  0  0  0  0
   18.5810   18.6510   22.7167 C   0  0  0  0  0  0  0  0  0  0  0  0
   18.0724   17.6917   22.8815 H   0  0  0  0  0  0  0  0  0  0  0  0
   17.7932   19.4154   22.7137 H   0  0  0  0  0  0  0  0  0  0  0  0
   19.2478   18.6045   21.3213 C   0  0  0  0  0  0  0  0  0  0  0  0
   19.8773   17.7071   21.2484 H   0  0  0  0  0  0  0  0  0  0  0  0
   18.4583   18.4780   20.5679 H   0  0  0  0  0  0  0  0  0  0  0  0
   18.8430   18.6371   25.1018 O   0  0  0  0  0  0  0  0  0  0  0  0
   18.0891   19.2617   25.1295 H   0  0  0  0  0  0  0  0  0  0  0  0
  1  2  1  0  0  0  0
  1  3  1  0  0  0  0
  1  4  1  0  0  0  0
  4  5  1  0  0  0  0
  4  6  1  0  0  0  0
  4  7  1  0  0  0  0
  7  8  1  0  0  0  0
  7  9  1  0  0  0  0
  7 10  1  0  0  0  0
 10 11  1  0  0  0  0
 10 12  1  0  0  0  0
 10 13  1  0  0  0  0
 13 14  1  0  0  0  0
 13 15  1  0  0  0  0
 15 16  1  0  0  0  0
 15 17  1  0  0  0  0
  1 18  1  0  0  0  0
 15 18  1  0  0  0  0
 18 19  1  0  0  0  0
 18 20  1  0  0  0  0
 13 21  1  0  0  0  0
 21 22  1  0  0  0  0
M  END
> <VConfSearch Rank>
107

> <Conf_Id>
76

> <Delta U+W>
-3.175

> <U+W>
3.248

> <U>
5.336

> <W>
-2.088

> <W(PB)>
-4.098

> <W(SA)>
2.010

> <Valence>
12.390

> <Coulomb>
-9.270

> <VdW>
2.216

> <VdW6>
-8.967

> <VdW12>
11.183

> <Bond>
0.218

> <Angle>
2.426

> <Pdih>
9.745

> <Idih>
0.000

> <Tether>
0.000

$$$$
VeraChem MOL file


 22 22  0  0  0  0  0  0  0  0999 V2000     
   18.4371   18.6467   22.8464 C   0  0  0  0  0  0  0  0  0  0  0  0
   17.9577   18.0065   22.0933 H   0  0  0  0  0  0  0  0  0  0  0  0
   17.8050   18.5778   23.7422 H   0  0  0  0  0  0  0  0  0  0  0  0
   18.4145   20.1044   22.3275 C   0  0  0  0  0  0  0  0  0  0  0  0
   18.5669   20.1088   21.2398 H   0  0  0  0  0  0  0  0  0  0  0  0
   17.4035   20.5046   22.4839 H   0  0  0  0  0  0  0  0  0  0  0  0
   19.4385   21.0522   22.9943 C   0  0  0  0  0  0  0  0  0  0  0  0
   19.5464   20.8255   24.0638 H   0  0  0  0  0  0  0  0  0  0  0  0
   19.0430   22.0753   22.9382 H   0  0  0  0  0  0  0  0  0  0  0  0
   20.8172   21.0397   22.2865 C   0  0  0  0  0  0  0  0  0  0  0  0
   20.6715   21.1973   21.2101 H   0  0  0  0  0  0  0  0  0  0  0  0
   21.3976   21.9041   22.6349 H   0  0  0  0  0  0  0  0  0  0  0  0
   21.6790   19.7732   22.4919 C   0  0  0  0  0  0  0  0  0  0  0  0
   22.5223   19.8463   21.7901 H   0  0  0  0  0  0  0  0  0  0  0  0
   20.9595   18.4321   22.2018 C   0  0  0  0  0  0  0  0  0  0  0  0
   20.5723   18.4322   21.1746 H   0  0  0  0  0  0  0  0  0  0  0  0
   21.7158   17.6372   22.2327 H   0  0  0  0  0  0  0  0  0  0  0  0
   19.8271   18.0633   23.1952 C   0  0  0  0  0  0  0  0  0  0  0  0
   19.7335   16.9696   23.2344 H   0  0  0  0  0  0  0  0  0  0  0  0
   20.1048   18.3677   24.2129 H   0  0  0  0  0  0  0  0  0  0  0  0
   22.2030   19.7712   23.8161 O   0  0  0  0  0  0  0  0  0  0  0  0
   22.6961   18.9320   23.9196 H   0  0  0  0  0  0  0  0  0  0  0  0
  1  2  1  0  0  0  0
  1  3  1  0  0  0  0
  1  4  1  0  0  0  0
  4  5  1  0  0  0  0
  4  6  1  0  0  0  0
  4  7  1  0  0  0  0
  7  8  1  0  0  0  0
  7  9  1  0  0  0  0
  7 10  1  0  0  0  0
 10 11  1  0  0  0  0
 10 12  1  0  0  0  0
 10 13  1  0  0  0  0
 13 14  1  0  0  0  0
 13 15  1  0  0  0  0
 15 16  1  0  0  0  0
 15 17  1  0  0  0  0
  1 18  1  0  0  0  0
 15 18  1  0  0  0  0
 18 19  1  0  0  0  0
 18 20  1  0  0  0  0
 13 21  1  0  0  0  0
 21 22  1  0  0  0  0
M  END
> <VConfSearch Rank>
108

> <Conf_Id>
95

> <Delta U+W>
-2.289

> <U+W>
4.134

> <U>
6.373

> <W>
-2.240

> <W(PB)>
-4.254

> <W(SA)>
2.015

> <Valence>
12.093

> <Coulomb>
-8.058

> <VdW>
2.339

> <VdW6>
-9.683

> <VdW12>
12.022

> <Bond>
0.268

> <Angle>
3.005

> <Pdih>
8.820

> <Idih>
0.000

> <Tether>
0.000

$$$$
VeraChem MOL file


 22 22  0  0  0  0  0  0  0  0999 V2000     
   20.5970   19.7622   20.8819 C   0  0  0  0  0  0  0  0  0  0  0  0
   20.2367   19.1803   20.0226 H   0  0  0  0  0  0  0  0  0  0  0  0
   21.3236   20.4778   20.4735 H   0  0  0  0  0  0  0  0  0  0  0  0
   21.3302   18.7987   21.8455 C   0  0  0  0  0  0  0  0  0  0  0  0
   20.8205   17.8258   21.8481 H   0  0  0  0  0  0  0  0  0  0  0  0
   22.3306   18.6047   21.4352 H   0  0  0  0  0  0  0  0  0  0  0  0
   21.4738   19.3086   23.2984 C   0  0  0  0  0  0  0  0  0  0  0  0
   21.6633   20.3905   23.3186 H   0  0  0  0  0  0  0  0  0  0  0  0
   22.3616   18.8352   23.7390 H   0  0  0  0  0  0  0  0  0  0  0  0
   20.2553   18.9427   24.1832 C   0  0  0  0  0  0  0  0  0  0  0  0
   20.0406   17.8718   24.0733 H   0  0  0  0  0  0  0  0  0  0  0  0
   20.5336   19.0770   25.2366 H   0  0  0  0  0  0  0  0  0  0  0  0
   18.9563   19.7373   23.9174 C   0  0  0  0  0  0  0  0  0  0  0  0
   18.1591   19.2442   24.4923 H   0  0  0  0  0  0  0  0  0  0  0  0
   18.4960   19.7698   22.4384 C   0  0  0  0  0  0  0  0  0  0  0  0
   18.3579   18.7466   22.0665 H   0  0  0  0  0  0  0  0  0  0  0  0
   17.5010   20.2329   22.4186 H   0  0  0  0  0  0  0  0  0  0  0  0
   19.4173   20.5665   21.4783 C   0  0  0  0  0  0  0  0  0  0  0  0
   18.8126   20.9469   20.6442 H   0  0  0  0  0  0  0  0  0  0  0  0
   19.8034   21.4597   21.9871 H   0  0  0  0  0  0  0  0  0  0  0  0
   19.1047   21.0644   24.4131 O   0  0  0  0  0  0  0  0  0  0  0  0
   19.4113   20.9862   25.3394 H   0  0  0  0  0  0  0  0  0  0  0  0
  1  2  1  0  0  0  0
  1  3  1  0  0  0  0
  1  4  1  0  0  0  0
  4  5  1  0  0  0  0
  4  6  1  0  0  0  0
  4  7  1  0  0  0  0
  7  8  1  0  0  0  0
  7  9  1  0  0  0  0
  7 10  1  0  0  0  0
 10 11  1  0  0  0  0
 10 12  1  0  0  0  0
 10 13  1  0  0  0  0
 13 14  1  0  0  0  0
 13 15  1  0  0  0  0
 15 16  1  0  0  0  0
 15 17  1  0  0  0  0
  1 18  1  0  0  0  0
 15 18  1  0  0  0  0
 18 19  1  0  0  0  0
 18 20  1  0  0  0  0
 13 21  1  0  0  0  0
 21 22  1  0  0  0  0
M  END
> <VConfSearch Rank>
109

> <Conf_Id>
41

> <Delta U+W>
-2.114

> <U+W>
4.310

> <U>
6.598

> <W>
-2.289

> <W(PB)>
-4.294

> <W(SA)>
2.005

> <Valence>
12.082

> <Coulomb>
-7.801

> <VdW>
2.317

> <VdW6>
-9.658

> <VdW12>
11.975

> <Bond>
0.267

> <Angle>
3.051

> <Pdih>
8.764

> <Idih>
0.000

> <Tether>
0.000

$$$$
VeraChem MOL file


 22 22  0  0  0  0  0  0  0  0999 V2000     
   21.6606   19.9378   22.3461 C   0  0  0  0  0  0  0  0  0  0  0  0
   22.6773   20.0017   21.9354 H   0  0  0  0  0  0  0  0  0  0  0  0
   21.4554   20.9110   22.8131 H   0  0  0  0  0  0  0  0  0  0  0  0
   21.6464   18.8108   23.4030 C   0  0  0  0  0  0  0  0  0  0  0  0
   21.7912   17.8409   22.9080 H   0  0  0  0  0  0  0  0  0  0  0  0
   22.5113   18.9419   24.0673 H   0  0  0  0  0  0  0  0  0  0  0  0
   20.3716   18.7597   24.2733 C   0  0  0  0  0  0  0  0  0  0  0  0
   20.3401   19.6413   24.9273 H   0  0  0  0  0  0  0  0  0  0  0  0
   20.4564   17.8967   24.9472 H   0  0  0  0  0  0  0  0  0  0  0  0
   19.0393   18.6351   23.4855 C   0  0  0  0  0  0  0  0  0  0  0  0
   19.0983   17.8006   22.7753 H   0  0  0  0  0  0  0  0  0  0  0  0
   18.2546   18.3597   24.2017 H   0  0  0  0  0  0  0  0  0  0  0  0
   18.5607   19.9157   22.7540 C   0  0  0  0  0  0  0  0  0  0  0  0
   17.4941   19.7706   22.5295 H   0  0  0  0  0  0  0  0  0  0  0  0
   19.2494   20.2177   21.3977 C   0  0  0  0  0  0  0  0  0  0  0  0
   18.6167   19.8104   20.5985 H   0  0  0  0  0  0  0  0  0  0  0  0
   19.2568   21.3034   21.2341 H   0  0  0  0  0  0  0  0  0  0  0  0
   20.6833   19.6742   21.1793 C   0  0  0  0  0  0  0  0  0  0  0  0
   20.6453   18.5982   20.9621 H   0  0  0  0  0  0  0  0  0  0  0  0
   21.0855   20.1438   20.2714 H   0  0  0  0  0  0  0  0  0  0  0  0
   18.6705   21.0493   23.6106 O   0  0  0  0  0  0  0  0  0  0  0  0
   18.3192   21.8151   23.1125 H   0  0  0  0  0  0  0  0  0  0  0  0
  1  2  1  0  0  0  0
  1  3  1  0  0  0  0
  1  4  1  0  0  0  0
  4  5  1  0  0  0  0
  4  6  1  0  0  0  0
  4  7  1  0  0  0  0
  7  8  1  0  0  0  0
  7  9  1  0  0  0  0
  7 10  1  0  0  0  0
 10 11  1  0  0  0  0
 10 12  1  0  0  0  0
 10 13  1  0  0  0  0
 13 14  1  0  0  0  0
 13 15  1  0  0  0  0
 15 16  1  0  0  0  0
 15 17  1  0  0  0  0
  1 18  1  0  0  0  0
 15 18  1  0  0  0  0
 18 19  1  0  0  0  0
 18 20  1  0  0  0  0
 13 21  1  0  0  0  0
 21 22  1  0  0  0  0
M  END
> <VConfSearch Rank>
110

> <Conf_Id>
104

> <Delta U+W>
-1.172

> <U+W>
5.252

> <U>
7.482

> <W>
-2.230

> <W(PB)>
-4.220

> <W(SA)>
1.990

> <Valence>
12.309

> <Coulomb>
-7.084

> <VdW>
2.258

> <VdW6>
-9.770

> <VdW12>
12.028

> <Bond>
0.284

> <Angle>
3.491

> <Pdih>
8.535

> <Idih>
0.000

> <Tether>
0.000

$$$$
VeraChem MOL file


 22 22  0  0  0  0  0  0  0  0999 V2000     
   20.7272   18.2967   23.4432 C   0  0  0  0  0  0  0  0  0  0  0  0
   19.8328   18.1246   24.0572 H   0  0  0  0  0  0  0  0  0  0  0  0
   21.4589   17.5394   23.7562 H   0  0  0  0  0  0  0  0  0  0  0  0
   21.3349   19.6886   23.7308 C   0  0  0  0  0  0  0  0  0  0  0  0
   21.9176   19.6312   24.6605 H   0  0  0  0  0  0  0  0  0  0  0  0
   22.0680   19.9335   22.9510 H   0  0  0  0  0  0  0  0  0  0  0  0
   20.3171   20.8474   23.8826 C   0  0  0  0  0  0  0  0  0  0  0  0
   20.8233   21.7899   23.6322 H   0  0  0  0  0  0  0  0  0  0  0  0
   20.0466   20.9353   24.9438 H   0  0  0  0  0  0  0  0  0  0  0  0
   18.9975   20.7464   23.0705 C   0  0  0  0  0  0  0  0  0  0  0  0
   18.3117   20.0601   23.5840 H   0  0  0  0  0  0  0  0  0  0  0  0
   18.5031   21.7259   23.1043 H   0  0  0  0  0  0  0  0  0  0  0  0
   19.1127   20.3173   21.5897 C   0  0  0  0  0  0  0  0  0  0  0  0
   18.2067   20.6693   21.0758 H   0  0  0  0  0  0  0  0  0  0  0  0
   19.1597   18.7829   21.4114 C   0  0  0  0  0  0  0  0  0  0  0  0
   18.2735   18.3461   21.8898 H   0  0  0  0  0  0  0  0  0  0  0  0
   19.0581   18.5596   20.3414 H   0  0  0  0  0  0  0  0  0  0  0  0
   20.4236   18.0633   21.9440 C   0  0  0  0  0  0  0  0  0  0  0  0
   20.2894   16.9849   21.7832 H   0  0  0  0  0  0  0  0  0  0  0  0
   21.2957   18.3455   21.3389 H   0  0  0  0  0  0  0  0  0  0  0  0
   20.2485   20.9153   20.9842 O   0  0  0  0  0  0  0  0  0  0  0  0
   20.9971   20.6244   21.5421 H   0  0  0  0  0  0  0  0  0  0  0  0
  1  2  1  0  0  0  0
  1  3  1  0  0  0  0
  1  4  1  0  0  0  0
  4  5  1  0  0  0  0
  4  6  1  0  0  0  0
  4  7  1  0  0  0  0
  7  8  1  0  0  0  0
  7  9  1  0  0  0  0
  7 10  1  0  0  0  0
 10 11  1  0  0  0  0
 10 12  1  0  0  0  0
 10 13  1  0  0  0  0
 13 14  1  0  0  0  0
 13 15  1  0  0  0  0
 15 16  1  0  0  0  0
 15 17  1  0  0  0  0
  1 18  1  0  0  0  0
 15 18  1  0  0  0  0
 18 19  1  0  0  0  0
 18 20  1  0  0  0  0
 13 21  1  0  0  0  0
 21 22  1  0  0  0  0
M  END
> <VConfSearch Rank>
111

> <Conf_Id>
99

> <Delta U+W>
-3.852

> <U+W>
2.572

> <U>
3.922

> <W>
-1.350

> <W(PB)>
-3.345

> <W(SA)>
1.995

> <Valence>
12.571

> <Coulomb>
-10.581

> <VdW>
1.932

> <VdW6>
-10.483

> <VdW12>
12.415

> <Bond>
0.268

> <Angle>
3.728

> <Pdih>
8.575

> <Idih>
0.000

> <Tether>
0.000

$$$$
VeraChem MOL file


 22 22  0  0  0  0  0  0  0  0999 V2000     
   19.3725   19.7535   24.1805 C   0  0  0  0  0  0  0  0  0  0  0  0
   18.6872   20.2501   24.8813 H   0  0  0  0  0  0  0  0  0  0  0  0
   19.8177   18.9305   24.7553 H   0  0  0  0  0  0  0  0  0  0  0  0
   20.4701   20.7813   23.7771 C   0  0  0  0  0  0  0  0  0  0  0  0
   20.2600   21.7227   24.3034 H   0  0  0  0  0  0  0  0  0  0  0  0
   21.4489   20.4578   24.1556 H   0  0  0  0  0  0  0  0  0  0  0  0
   20.5785   21.1002   22.2640 C   0  0  0  0  0  0  0  0  0  0  0  0
   21.2421   21.9667   22.1393 H   0  0  0  0  0  0  0  0  0  0  0  0
   19.6063   21.4411   21.8869 H   0  0  0  0  0  0  0  0  0  0  0  0
   21.1182   19.9547   21.3633 C   0  0  0  0  0  0  0  0  0  0  0  0
   20.7852   20.1418   20.3343 H   0  0  0  0  0  0  0  0  0  0  0  0
   22.2136   20.0258   21.3311 H   0  0  0  0  0  0  0  0  0  0  0  0
   20.7562   18.4964   21.7381 C   0  0  0  0  0  0  0  0  0  0  0  0
   21.0277   17.8687   20.8773 H   0  0  0  0  0  0  0  0  0  0  0  0
   19.2641   18.2181   22.0450 C   0  0  0  0  0  0  0  0  0  0  0  0
   18.7119   18.1996   21.0966 H   0  0  0  0  0  0  0  0  0  0  0  0
   19.1930   17.1966   22.4420 H   0  0  0  0  0  0  0  0  0  0  0  0
   18.5236   19.1758   23.0193 C   0  0  0  0  0  0  0  0  0  0  0  0
   18.0627   19.9954   22.4541 H   0  0  0  0  0  0  0  0  0  0  0  0
   17.6753   18.6267   23.4503 H   0  0  0  0  0  0  0  0  0  0  0  0
   21.5542   18.0741   22.8326 O   0  0  0  0  0  0  0  0  0  0  0  0
   21.2769   18.6582   23.5667 H   0  0  0  0  0  0  0  0  0  0  0  0
  1  2  1  0  0  0  0
  1  3  1  0  0  0  0
  1  4  1  0  0  0  0
  4  5  1  0  0  0  0
  4  6  1  0  0  0  0
  4  7  1  0  0  0  0
  7  8  1  0  0  0  0
  7  9  1  0  0  0  0
  7 10  1  0  0  0  0
 10 11  1  0  0  0  0
 10 12  1  0  0  0  0
 10 13  1  0  0  0  0
 13 14  1  0  0  0  0
 13 15  1  0  0  0  0
 15 16  1  0  0  0  0
 15 17  1  0  0  0  0
  1 18  1  0  0  0  0
 15 18  1  0  0  0  0
 18 19  1  0  0  0  0
 18 20  1  0  0  0  0
 13 21  1  0  0  0  0
 21 22  1  0  0  0  0
M  END
> <VConfSearch Rank>
112

> <Conf_Id>
98

> <Delta U+W>
0.930

> <U+W>
7.353

> <U>
8.455

> <W>
-1.102

> <W(PB)>
-3.101

> <W(SA)>
2.000

> <Valence>
15.601

> <Coulomb>
-10.573

> <VdW>
3.427

> <VdW6>
-11.360

> <VdW12>
14.787

> <Bond>
0.471

> <Angle>
5.445

> <Pdih>
9.685

> <Idih>
0.000

> <Tether>
0.000

$$$$
VeraChem MOL file


 22 22  0  0  0  0  0  0  0  0999 V2000     
   20.0452   20.6704   21.3660 C   0  0  0  0  0  0  0  0  0  0  0  0
   20.2144   19.8218   20.6907 H   0  0  0  0  0  0  0  0  0  0  0  0
   19.9729   21.5477   20.7088 H   0  0  0  0  0  0  0  0  0  0  0  0
   21.2709   20.8515   22.2972 C   0  0  0  0  0  0  0  0  0  0  0  0
   22.1486   21.0227   21.6590 H   0  0  0  0  0  0  0  0  0  0  0  0
   21.1504   21.7687   22.8895 H   0  0  0  0  0  0  0  0  0  0  0  0
   21.5901   19.6664   23.2503 C   0  0  0  0  0  0  0  0  0  0  0  0
   21.2608   19.9044   24.2701 H   0  0  0  0  0  0  0  0  0  0  0  0
   22.6818   19.5685   23.3214 H   0  0  0  0  0  0  0  0  0  0  0  0
   20.9954   18.2991   22.8207 C   0  0  0  0  0  0  0  0  0  0  0  0
   21.2749   18.0963   21.7793 H   0  0  0  0  0  0  0  0  0  0  0  0
   21.4891   17.5098   23.4035 H   0  0  0  0  0  0  0  0  0  0  0  0
   19.4534   18.1495   22.9746 C   0  0  0  0  0  0  0  0  0  0  0  0
   19.0628   17.6991   22.0507 H   0  0  0  0  0  0  0  0  0  0  0  0
   18.6696   19.4588   23.2425 C   0  0  0  0  0  0  0  0  0  0  0  0
   17.6214   19.2090   23.4523 H   0  0  0  0  0  0  0  0  0  0  0  0
   19.0400   19.9293   24.1613 H   0  0  0  0  0  0  0  0  0  0  0  0
   18.6894   20.4926   22.0890 C   0  0  0  0  0  0  0  0  0  0  0  0
   17.9384   20.2047   21.3407 H   0  0  0  0  0  0  0  0  0  0  0  0
   18.3626   21.4634   22.4858 H   0  0  0  0  0  0  0  0  0  0  0  0
   19.1924   17.2667   24.0598 O   0  0  0  0  0  0  0  0  0  0  0  0
   18.2208   17.1453   24.0980 H   0  0  0  0  0  0  0  0  0  0  0  0
  1  2  1  0  0  0  0
  1  3  1  0  0  0  0
  1  4  1  0  0  0  0
  4  5  1  0  0  0  0
  4  6  1  0  0  0  0
  4  7  1  0  0  0  0
  7  8  1  0  0  0  0
  7  9  1  0  0  0  0
  7 10  1  0  0  0  0
 10 11  1  0  0  0  0
 10 12  1  0  0  0  0
 10 13  1  0  0  0  0
 13 14  1  0  0  0  0
 13 15  1  0  0  0  0
 15 16  1  0  0  0  0
 15 17  1  0  0  0  0
  1 18  1  0  0  0  0
 15 18  1  0  0  0  0
 18 19  1  0  0  0  0
 18 20  1  0  0  0  0
 13 21  1  0  0  0  0
 21 22  1  0  0  0  0
M  END
> <VConfSearch Rank>
113

> <Conf_Id>
141

> <Delta U+W>
0.000

> <U+W>
6.423

> <U>
8.781

> <W>
-2.358

> <W(PB)>
-4.373

> <W(SA)>
2.015

> <Valence>
13.328

> <Coulomb>
-8.387

> <VdW>
3.840

> <VdW6>
-9.744

> <VdW12>
13.584

> <Bond>
0.436

> <Angle>
3.478

> <Pdih>
9.415

> <Idih>
0.000

> <Tether>
0.000

$$$$
VeraChem MOL file


 22 22  0  0  0  0  0  0  0  0999 V2000     
   18.3586   19.4483   22.0351 C   0  0  0  0  0  0  0  0  0  0  0  0
   18.0743   20.3401   22.6100 H   0  0  0  0  0  0  0  0  0  0  0  0
   17.4641   19.1537   21.4694 H   0  0  0  0  0  0  0  0  0  0  0  0
   18.7256   18.2763   22.9770 C   0  0  0  0  0  0  0  0  0  0  0  0
   17.8138   17.9404   23.4894 H   0  0  0  0  0  0  0  0  0  0  0  0
   19.0639   17.4198   22.3779 H   0  0  0  0  0  0  0  0  0  0  0  0
   19.7898   18.6015   24.0504 C   0  0  0  0  0  0  0  0  0  0  0  0
   20.0101   17.6789   24.6047 H   0  0  0  0  0  0  0  0  0  0  0  0
   19.3652   19.2986   24.7857 H   0  0  0  0  0  0  0  0  0  0  0  0
   21.1180   19.1771   23.5012 C   0  0  0  0  0  0  0  0  0  0  0  0
   21.8551   19.1451   24.3144 H   0  0  0  0  0  0  0  0  0  0  0  0
   21.5163   18.5379   22.7026 H   0  0  0  0  0  0  0  0  0  0  0  0
   20.9778   20.6349   23.0084 C   0  0  0  0  0  0  0  0  0  0  0  0
   20.2268   21.1388   23.6336 H   0  0  0  0  0  0  0  0  0  0  0  0
   20.5501   20.7743   21.5296 C   0  0  0  0  0  0  0  0  0  0  0  0
   20.1767   21.7967   21.3877 H   0  0  0  0  0  0  0  0  0  0  0  0
   21.4350   20.6852   20.8854 H   0  0  0  0  0  0  0  0  0  0  0  0
   19.4783   19.7782   21.0204 C   0  0  0  0  0  0  0  0  0  0  0  0
   19.0248   20.2017   20.1139 H   0  0  0  0  0  0  0  0  0  0  0  0
   19.9650   18.8476   20.6983 H   0  0  0  0  0  0  0  0  0  0  0  0
   22.2270   21.2956   23.1700 O   0  0  0  0  0  0  0  0  0  0  0  0
   22.4427   21.2618   24.1255 H   0  0  0  0  0  0  0  0  0  0  0  0
  1  2  1  0  0  0  0
  1  3  1  0  0  0  0
  1  4  1  0  0  0  0
  4  5  1  0  0  0  0
  4  6  1  0  0  0  0
  4  7  1  0  0  0  0
  7  8  1  0  0  0  0
  7  9  1  0  0  0  0
  7 10  1  0  0  0  0
 10 11  1  0  0  0  0
 10 12  1  0  0  0  0
 10 13  1  0  0  0  0
 13 14  1  0  0  0  0
 13 15  1  0  0  0  0
 15 16  1  0  0  0  0
 15 17  1  0  0  0  0
  1 18  1  0  0  0  0
 15 18  1  0  0  0  0
 18 19  1  0  0  0  0
 18 20  1  0  0  0  0
 13 21  1  0  0  0  0
 21 22  1  0  0  0  0
M  END
> <VConfSearch Rank>
114

> <Conf_Id>
144

> <Delta U+W>
-3.291

> <U+W>
3.132

> <U>
5.411

> <W>
-2.279

> <W(PB)>
-4.300

> <W(SA)>
2.021

> <Valence>
11.909

> <Coulomb>
-8.733

> <VdW>
2.236

> <VdW6>
-8.936

> <VdW12>
11.172

> <Bond>
0.223

> <Angle>
2.457

> <Pdih>
9.228

> <Idih>
0.000

> <Tether>
0.000

$$$$
VeraChem MOL file


 22 22  0  0  0  0  0  0  0  0999 V2000     
   18.7274   20.3765   23.5780 C   0  0  0  0  0  0  0  0  0  0  0  0
   18.1823   20.9293   24.3553 H   0  0  0  0  0  0  0  0  0  0  0  0
   18.0057   20.1982   22.7692 H   0  0  0  0  0  0  0  0  0  0  0  0
   19.2100   19.0407   24.1903 C   0  0  0  0  0  0  0  0  0  0  0  0
   20.1418   19.2094   24.7472 H   0  0  0  0  0  0  0  0  0  0  0  0
   18.4778   18.7078   24.9387 H   0  0  0  0  0  0  0  0  0  0  0  0
   19.4123   17.8889   23.1763 C   0  0  0  0  0  0  0  0  0  0  0  0
   18.4450   17.4024   22.9904 H   0  0  0  0  0  0  0  0  0  0  0  0
   20.0447   17.1245   23.6482 H   0  0  0  0  0  0  0  0  0  0  0  0
   20.0269   18.2777   21.8091 C   0  0  0  0  0  0  0  0  0  0  0  0
   20.4137   17.3618   21.3421 H   0  0  0  0  0  0  0  0  0  0  0  0
   19.2303   18.6368   21.1448 H   0  0  0  0  0  0  0  0  0  0  0  0
   21.1508   19.3359   21.8774 C   0  0  0  0  0  0  0  0  0  0  0  0
   21.7286   19.2001   22.8027 H   0  0  0  0  0  0  0  0  0  0  0  0
   20.6082   20.7817   21.8122 C   0  0  0  0  0  0  0  0  0  0  0  0
   21.4456   21.4628   21.6098 H   0  0  0  0  0  0  0  0  0  0  0  0
   19.9253   20.8785   20.9582 H   0  0  0  0  0  0  0  0  0  0  0  0
   19.8919   21.2728   23.0926 C   0  0  0  0  0  0  0  0  0  0  0  0
   20.6274   21.3849   23.9009 H   0  0  0  0  0  0  0  0  0  0  0  0
   19.5012   22.2816   22.9017 H   0  0  0  0  0  0  0  0  0  0  0  0
   22.0140   19.1433   20.7647 O   0  0  0  0  0  0  0  0  0  0  0  0
   21.4651   19.2701   19.9636 H   0  0  0  0  0  0  0  0  0  0  0  0
  1  2  1  0  0  0  0
  1  3  1  0  0  0  0
  1  4  1  0  0  0  0
  4  5  1  0  0  0  0
  4  6  1  0  0  0  0
  4  7  1  0  0  0  0
  7  8  1  0  0  0  0
  7  9  1  0  0  0  0
  7 10  1  0  0  0  0
 10 11  1  0  0  0  0
 10 12  1  0  0  0  0
 10 13  1  0  0  0  0
 13 14  1  0  0  0  0
 13 15  1  0  0  0  0
 15 16  1  0  0  0  0
 15 17  1  0  0  0  0
  1 18  1  0  0  0  0
 15 18  1  0  0  0  0
 18 19  1  0  0  0  0
 18 20  1  0  0  0  0
 13 21  1  0  0  0  0
 21 22  1  0  0  0  0
M  END
> <VConfSearch Rank>
115

> <Conf_Id>
76

> <Delta U+W>
-3.175

> <U+W>
3.248

> <U>
5.336

> <W>
-2.088

> <W(PB)>
-4.098

> <W(SA)>
2.010

> <Valence>
12.390

> <Coulomb>
-9.270

> <VdW>
2.216

> <VdW6>
-8.967

> <VdW12>
11.183

> <Bond>
0.218

> <Angle>
2.426

> <Pdih>
9.745

> <Idih>
0.000

> <Tether>
0.000

$$$$
VeraChem MOL file


 22 22  0  0  0  0  0  0  0  0999 V2000     
   19.0902   18.0650   23.2637 C   0  0  0  0  0  0  0  0  0  0  0  0
   19.2165   17.0227   22.9405 H   0  0  0  0  0  0  0  0  0  0  0  0
   18.3282   18.0416   24.0547 H   0  0  0  0  0  0  0  0  0  0  0  0
   18.5454   18.8803   22.0666 C   0  0  0  0  0  0  0  0  0  0  0  0
   18.9961   18.5105   21.1357 H   0  0  0  0  0  0  0  0  0  0  0  0
   17.4706   18.6721   21.9752 H   0  0  0  0  0  0  0  0  0  0  0  0
   18.7539   20.4093   22.1672 C   0  0  0  0  0  0  0  0  0  0  0  0
   18.6291   20.7564   23.2020 H   0  0  0  0  0  0  0  0  0  0  0  0
   17.9636   20.9004   21.5837 H   0  0  0  0  0  0  0  0  0  0  0  0
   20.1185   20.8678   21.5929 C   0  0  0  0  0  0  0  0  0  0  0  0
   20.2463   20.4473   20.5872 H   0  0  0  0  0  0  0  0  0  0  0  0
   20.0926   21.9568   21.4558 H   0  0  0  0  0  0  0  0  0  0  0  0
   21.3658   20.5237   22.4384 C   0  0  0  0  0  0  0  0  0  0  0  0
   22.2432   20.7490   21.8153 H   0  0  0  0  0  0  0  0  0  0  0  0
   21.4814   19.0399   22.8690 C   0  0  0  0  0  0  0  0  0  0  0  0
   21.4672   18.3931   21.9823 H   0  0  0  0  0  0  0  0  0  0  0  0
   22.4727   18.9023   23.3197 H   0  0  0  0  0  0  0  0  0  0  0  0
   20.4143   18.5647   23.8892 C   0  0  0  0  0  0  0  0  0  0  0  0
   20.8360   17.7443   24.4855 H   0  0  0  0  0  0  0  0  0  0  0  0
   20.1979   19.3654   24.6086 H   0  0  0  0  0  0  0  0  0  0  0  0
   21.4056   21.3702   23.5830 O   0  0  0  0  0  0  0  0  0  0  0  0
   22.1770   21.0852   24.1139 H   0  0  0  0  0  0  0  0  0  0  0  0
  1  2  1  0  0  0  0
  1  3  1  0  0  0  0
  1  4  1  0  0  0  0
  4  5  1  0  0  0  0
  4  6  1  0  0  0  0
  4  7  1  0  0  0  0
  7  8  1  0  0  0  0
  7  9  1  0  0  0  0
  7 10  1  0  0  0  0
 10 11  1  0  0  0  0
 10 12  1  0  0  0  0
 10 13  1  0  0  0  0
 13 14  1  0  0  0  0
 13 15  1  0  0  0  0
 15 16  1  0  0  0  0
 15 17  1  0  0  0  0
  1 18  1  0  0  0  0
 15 18  1  0  0  0  0
 18 19  1  0  0  0  0
 18 20  1  0  0  0  0
 13 21  1  0  0  0  0
 21 22  1  0  0  0  0
M  END
> <VConfSearch Rank>
116

> <Conf_Id>
95

> <Delta U+W>
-2.289

> <U+W>
4.134

> <U>
6.373

> <W>
-2.240

> <W(PB)>
-4.254

> <W(SA)>
2.015

> <Valence>
12.093

> <Coulomb>
-8.058

> <VdW>
2.339

> <VdW6>
-9.683

> <VdW12>
12.022

> <Bond>
0.268

> <Angle>
3.005

> <Pdih>
8.820

> <Idih>
0.000

> <Tether>
0.000

$$$$
VeraChem MOL file


 22 22  0  0  0  0  0  0  0  0999 V2000     
   18.2375   19.2458   22.2166 C   0  0  0  0  0  0  0  0  0  0  0  0
   17.8777   18.7076   21.3291 H   0  0  0  0  0  0  0  0  0  0  0  0
   17.3398   19.4923   22.7999 H   0  0  0  0  0  0  0  0  0  0  0  0
   18.9066   20.5598   21.7476 C   0  0  0  0  0  0  0  0  0  0  0  0
   19.4314   20.3848   20.7987 H   0  0  0  0  0  0  0  0  0  0  0  0
   18.1115   21.2810   21.5143 H   0  0  0  0  0  0  0  0  0  0  0  0
   19.8811   21.1984   22.7646 C   0  0  0  0  0  0  0  0  0  0  0  0
   19.5096   21.0814   23.7918 H   0  0  0  0  0  0  0  0  0  0  0  0
   19.9126   22.2794   22.5729 H   0  0  0  0  0  0  0  0  0  0  0  0
   21.3254   20.6528   22.6318 C   0  0  0  0  0  0  0  0  0  0  0  0
   21.6335   20.7051   21.5796 H   0  0  0  0  0  0  0  0  0  0  0  0
   22.0058   21.3269   23.1680 H   0  0  0  0  0  0  0  0  0  0  0  0
   21.5608   19.2138   23.1451 C   0  0  0  0  0  0  0  0  0  0  0  0
   22.5707   18.9225   22.8219 H   0  0  0  0  0  0  0  0  0  0  0  0
   20.5816   18.1491   22.5902 C   0  0  0  0  0  0  0  0  0  0  0  0
   20.6240   18.1365   21.4936 H   0  0  0  0  0  0  0  0  0  0  0  0
   20.9510   17.1680   22.9157 H   0  0  0  0  0  0  0  0  0  0  0  0
   19.1124   18.2927   23.0656 C   0  0  0  0  0  0  0  0  0  0  0  0
   18.6397   17.3014   23.0545 H   0  0  0  0  0  0  0  0  0  0  0  0
   19.0895   18.6128   24.1156 H   0  0  0  0  0  0  0  0  0  0  0  0
   21.5324   19.2098   24.5692 O   0  0  0  0  0  0  0  0  0  0  0  0
   22.1518   19.9077   24.8650 H   0  0  0  0  0  0  0  0  0  0  0  0
  1  2  1  0  0  0  0
  1  3  1  0  0  0  0
  1  4  1  0  0  0  0
  4  5  1  0  0  0  0
  4  6  1  0  0  0  0
  4  7  1  0  0  0  0
  7  8  1  0  0  0  0
  7  9  1  0  0  0  0
  7 10  1  0  0  0  0
 10 11  1  0  0  0  0
 10 12  1  0  0  0  0
 10 13  1  0  0  0  0
 13 14  1  0  0  0  0
 13 15  1  0  0  0  0
 15 16  1  0  0  0  0
 15 17  1  0  0  0  0
  1 18  1  0  0  0  0
 15 18  1  0  0  0  0
 18 19  1  0  0  0  0
 18 20  1  0  0  0  0
 13 21  1  0  0  0  0
 21 22  1  0  0  0  0
M  END
> <VConfSearch Rank>
117

> <Conf_Id>
41

> <Delta U+W>
-2.114

> <U+W>
4.310

> <U>
6.598

> <W>
-2.289

> <W(PB)>
-4.294

> <W(SA)>
2.005

> <Valence>
12.082

> <Coulomb>
-7.801

> <VdW>
2.317

> <VdW6>
-9.658

> <VdW12>
11.975

> <Bond>
0.267

> <Angle>
3.051

> <Pdih>
8.764

> <Idih>
0.000

> <Tether>
0.000

$$$$
VeraChem MOL file


 22 22  0  0  0  0  0  0  0  0999 V2000     
   19.5572   20.3543   21.3620 C   0  0  0  0  0  0  0  0  0  0  0  0
   19.2147   21.0988   20.6306 H   0  0  0  0  0  0  0  0  0  0  0  0
   19.9235   19.4971   20.7804 H   0  0  0  0  0  0  0  0  0  0  0  0
   18.3441   19.9485   22.2287 C   0  0  0  0  0  0  0  0  0  0  0  0
   18.0329   20.8010   22.8475 H   0  0  0  0  0  0  0  0  0  0  0  0
   17.4957   19.7323   21.5653 H   0  0  0  0  0  0  0  0  0  0  0  0
   18.5795   18.7164   23.1297 C   0  0  0  0  0  0  0  0  0  0  0  0
   18.6811   17.8199   22.5037 H   0  0  0  0  0  0  0  0  0  0  0  0
   17.6722   18.5562   23.7275 H   0  0  0  0  0  0  0  0  0  0  0  0
   19.7885   18.8281   24.0976 C   0  0  0  0  0  0  0  0  0  0  0  0
   19.7283   19.7629   24.6693 H   0  0  0  0  0  0  0  0  0  0  0  0
   19.6974   18.0222   24.8371 H   0  0  0  0  0  0  0  0  0  0  0  0
   21.1911   18.6969   23.4499 C   0  0  0  0  0  0  0  0  0  0  0  0
   21.8955   18.4764   24.2650 H   0  0  0  0  0  0  0  0  0  0  0  0
   21.7323   19.9675   22.7444 C   0  0  0  0  0  0  0  0  0  0  0  0
   22.3724   20.5039   23.4569 H   0  0  0  0  0  0  0  0  0  0  0  0
   22.4008   19.6658   21.9273 H   0  0  0  0  0  0  0  0  0  0  0  0
   20.7000   20.9810   22.1910 C   0  0  0  0  0  0  0  0  0  0  0  0
   20.2799   21.5731   23.0152 H   0  0  0  0  0  0  0  0  0  0  0  0
   21.2400   21.6986   21.5585 H   0  0  0  0  0  0  0  0  0  0  0  0
   21.2212   17.5963   22.5450 O   0  0  0  0  0  0  0  0  0  0  0  0
   22.1353   17.5387   22.2001 H   0  0  0  0  0  0  0  0  0  0  0  0
  1  2  1  0  0  0  0
  1  3  1  0  0  0  0
  1  4  1  0  0  0  0
  4  5  1  0  0  0  0
  4  6  1  0  0  0  0
  4  7  1  0  0  0  0
  7  8  1  0  0  0  0
  7  9  1  0  0  0  0
  7 10  1  0  0  0  0
 10 11  1  0  0  0  0
 10 12  1  0  0  0  0
 10 13  1  0  0  0  0
 13 14  1  0  0  0  0
 13 15  1  0  0  0  0
 15 16  1  0  0  0  0
 15 17  1  0  0  0  0
  1 18  1  0  0  0  0
 15 18  1  0  0  0  0
 18 19  1  0  0  0  0
 18 20  1  0  0  0  0
 13 21  1  0  0  0  0
 21 22  1  0  0  0  0
M  END
> <VConfSearch Rank>
118

> <Conf_Id>
104

> <Delta U+W>
-1.172

> <U+W>
5.252

> <U>
7.482

> <W>
-2.230

> <W(PB)>
-4.220

> <W(SA)>
1.990

> <Valence>
12.309

> <Coulomb>
-7.084

> <VdW>
2.258

> <VdW6>
-9.770

> <VdW12>
12.028

> <Bond>
0.284

> <Angle>
3.491

> <Pdih>
8.535

> <Idih>
0.000

> <Tether>
0.000

$$$$
VeraChem MOL file


 22 22  0  0  0  0  0  0  0  0999 V2000     
   20.5762   18.9969   24.1162 C   0  0  0  0  0  0  0  0  0  0  0  0
   19.6492   19.2809   24.6323 H   0  0  0  0  0  0  0  0  0  0  0  0
   21.2225   18.5464   24.8818 H   0  0  0  0  0  0  0  0  0  0  0  0
   21.3017   20.2429   23.5587 C   0  0  0  0  0  0  0  0  0  0  0  0
   21.8442   20.7295   24.3809 H   0  0  0  0  0  0  0  0  0  0  0  0
   22.0808   19.9249   22.8535 H   0  0  0  0  0  0  0  0  0  0  0  0
   20.3925   21.3093   22.8970 C   0  0  0  0  0  0  0  0  0  0  0  0
   20.9932   21.8780   22.1737 H   0  0  0  0  0  0  0  0  0  0  0  0
   20.0953   22.0370   23.6645 H   0  0  0  0  0  0  0  0  0  0  0  0
   19.0978   20.8080   22.2015 C   0  0  0  0  0  0  0  0  0  0  0  0
   18.3335   20.6119   22.9645 H   0  0  0  0  0  0  0  0  0  0  0  0
   18.6966   21.6324   21.5978 H   0  0  0  0  0  0  0  0  0  0  0  0
   19.2229   19.5636   21.2927 C   0  0  0  0  0  0  0  0  0  0  0  0
   18.3721   19.5803   20.5965 H   0  0  0  0  0  0  0  0  0  0  0  0
   19.1318   18.2355   22.0777 C   0  0  0  0  0  0  0  0  0  0  0  0
   18.1926   18.2268   22.6460 H   0  0  0  0  0  0  0  0  0  0  0  0
   19.0464   17.4151   21.3533 H   0  0  0  0  0  0  0  0  0  0  0  0
   20.3035   17.9193   23.0399 C   0  0  0  0  0  0  0  0  0  0  0  0
   20.0744   16.9734   23.5493 H   0  0  0  0  0  0  0  0  0  0  0  0
   21.2185   17.7292   22.4627 H   0  0  0  0  0  0  0  0  0  0  0  0
   20.4298   19.6097   20.5475 O   0  0  0  0  0  0  0  0  0  0  0  0
   21.1283   19.6767   21.2286 H   0  0  0  0  0  0  0  0  0  0  0  0
  1  2  1  0  0  0  0
  1  3  1  0  0  0  0
  1  4  1  0  0  0  0
  4  5  1  0  0  0  0
  4  6  1  0  0  0  0
  4  7  1  0  0  0  0
  7  8  1  0  0  0  0
  7  9  1  0  0  0  0
  7 10  1  0  0  0  0
 10 11  1  0  0  0  0
 10 12  1  0  0  0  0
 10 13  1  0  0  0  0
 13 14  1  0  0  0  0
 13 15  1  0  0  0  0
 15 16  1  0  0  0  0
 15 17  1  0  0  0  0
  1 18  1  0  0  0  0
 15 18  1  0  0  0  0
 18 19  1  0  0  0  0
 18 20  1  0  0  0  0
 13 21  1  0  0  0  0
 21 22  1  0  0  0  0
M  END
> <VConfSearch Rank>
119

> <Conf_Id>
99

> <Delta U+W>
-3.852

> <U+W>
2.572

> <U>
3.922

> <W>
-1.350

> <W(PB)>
-3.345

> <W(SA)>
1.995

> <Valence>
12.571

> <Coulomb>
-10.581

> <VdW>
1.932

> <VdW6>
-10.483

> <VdW12>
12.415

> <Bond>
0.268

> <Angle>
3.728

> <Pdih>
8.575

> <Idih>
0.000

> <Tether>
0.000

$$$$
VeraChem MOL file


 22 22  0  0  0  0  0  0  0  0999 V2000     
   19.5978   19.5306   21.0807 C   0  0  0  0  0  0  0  0  0  0  0  0
   18.9417   19.8344   20.2533 H   0  0  0  0  0  0  0  0  0  0  0  0
   20.3237   18.8419   20.6280 H   0  0  0  0  0  0  0  0  0  0  0  0
   18.7268   18.7786   22.1293 C   0  0  0  0  0  0  0  0  0  0  0  0
   17.6937   18.7568   21.7558 H   0  0  0  0  0  0  0  0  0  0  0  0
   19.0294   17.7244   22.1866 H   0  0  0  0  0  0  0  0  0  0  0  0
   18.7011   19.3892   23.5539 C   0  0  0  0  0  0  0  0  0  0  0  0
   17.9119   18.8885   24.1312 H   0  0  0  0  0  0  0  0  0  0  0  0
   18.3816   20.4374   23.5017 H   0  0  0  0  0  0  0  0  0  0  0  0
   20.0227   19.2833   24.3644 C   0  0  0  0  0  0  0  0  0  0  0  0
   20.0114   20.0584   25.1415 H   0  0  0  0  0  0  0  0  0  0  0  0
   20.0212   18.3285   24.9070 H   0  0  0  0  0  0  0  0  0  0  0  0
   21.3631   19.3803   23.5949 C   0  0  0  0  0  0  0  0  0  0  0  0
   22.1542   19.5125   24.3469 H   0  0  0  0  0  0  0  0  0  0  0  0
   21.4944   20.5534   22.5926 C   0  0  0  0  0  0  0  0  0  0  0  0
   21.6574   21.4786   23.1603 H   0  0  0  0  0  0  0  0  0  0  0  0
   22.4187   20.3977   22.0204 H   0  0  0  0  0  0  0  0  0  0  0  0
   20.3320   20.7970   21.5905 C   0  0  0  0  0  0  0  0  0  0  0  0
   19.6068   21.4949   22.0271 H   0  0  0  0  0  0  0  0  0  0  0  0
   20.7425   21.3321   20.7234 H   0  0  0  0  0  0  0  0  0  0  0  0
   21.6194   18.1540   22.9287 O   0  0  0  0  0  0  0  0  0  0  0  0
   20.8943   18.0836   22.2759 H   0  0  0  0  0  0  0  0  0  0  0  0
  1  2  1  0  0  0  0
  1  3  1  0  0  0  0
  1  4  1  0  0  0  0
  4  5  1  0  0  0  0
  4  6  1  0  0  0  0
  4  7  1  0  0  0  0
  7  8  1  0  0  0  0
  7  9  1  0  0  0  0
  7 10  1  0  0  0  0
 10 11  1  0  0  0  0
 10 12  1  0  0  0  0
 10 13  1  0  0  0  0
 13 14  1  0  0  0  0
 13 15  1  0  0  0  0
 15 16  1  0  0  0  0
 15 17  1  0  0  0  0
  1 18  1  0  0  0  0
 15 18  1  0  0  0  0
 18 19  1  0  0  0  0
 18 20  1  0  0  0  0
 13 21  1  0  0  0  0
 21 22  1  0  0  0  0
M  END
> <VConfSearch Rank>
120

> <Conf_Id>
98

> <Delta U+W>
0.930

> <U+W>
7.353

> <U>
8.455

> <W>
-1.102

> <W(PB)>
-3.101

> <W(SA)>
2.000

> <Valence>
15.601

> <Coulomb>
-10.573

> <VdW>
3.427

> <VdW6>
-11.360

> <VdW12>
14.787

> <Bond>
0.471

> <Angle>
5.445

> <Pdih>
9.685

> <Idih>
0.000

> <Tether>
0.000

$$$$
VeraChem MOL file


 22 22  0  0  0  0  0  0  0  0999 V2000     
   20.6115   21.1461   22.6462 C   0  0  0  0  0  0  0  0  0  0  0  0
   20.5659   21.1017   21.5504 H   0  0  0  0  0  0  0  0  0  0  0  0
   20.9372   22.1696   22.8767 H   0  0  0  0  0  0  0  0  0  0  0  0
   21.6858   20.1575   23.1664 C   0  0  0  0  0  0  0  0  0  0  0  0
   22.6462   20.4472   22.7185 H   0  0  0  0  0  0  0  0  0  0  0  0
   21.8116   20.2878   24.2498 H   0  0  0  0  0  0  0  0  0  0  0  0
   21.4424   18.6541   22.8578 C   0  0  0  0  0  0  0  0  0  0  0  0
   21.0811   18.1390   23.7573 H   0  0  0  0  0  0  0  0  0  0  0  0
   22.4122   18.1886   22.6358 H   0  0  0  0  0  0  0  0  0  0  0  0
   20.4748   18.3739   21.6775 C   0  0  0  0  0  0  0  0  0  0  0  0
   20.8050   18.9418   20.7989 H   0  0  0  0  0  0  0  0  0  0  0  0
   20.5807   17.3198   21.3876 H   0  0  0  0  0  0  0  0  0  0  0  0
   18.9708   18.6744   21.9450 C   0  0  0  0  0  0  0  0  0  0  0  0
   18.5773   19.2290   21.0809 H   0  0  0  0  0  0  0  0  0  0  0  0
   18.6606   19.4905   23.2249 C   0  0  0  0  0  0  0  0  0  0  0  0
   17.5728   19.5303   23.3661 H   0  0  0  0  0  0  0  0  0  0  0  0
   19.0430   18.9578   24.1039 H   0  0  0  0  0  0  0  0  0  0  0  0
   19.1934   20.9451   23.2304 C   0  0  0  0  0  0  0  0  0  0  0  0
   18.4979   21.5805   22.6654 H   0  0  0  0  0  0  0  0  0  0  0  0
   19.1727   21.3196   24.2629 H   0  0  0  0  0  0  0  0  0  0  0  0
   18.2757   17.4370   22.0494 O   0  0  0  0  0  0  0  0  0  0  0  0
   17.3266   17.6545   22.1595 H   0  0  0  0  0  0  0  0  0  0  0  0
  1  2  1  0  0  0  0
  1  3  1  0  0  0  0
  1  4  1  0  0  0  0
  4  5  1  0  0  0  0
  4  6  1  0  0  0  0
  4  7  1  0  0  0  0
  7  8  1  0  0  0  0
  7  9  1  0  0  0  0
  7 10  1  0  0  0  0
 10 11  1  0  0  0  0
 10 12  1  0  0  0  0
 10 13  1  0  0  0  0
 13 14  1  0  0  0  0
 13 15  1  0  0  0  0
 15 16  1  0  0  0  0
 15 17  1  0  0  0  0
  1 18  1  0  0  0  0
 15 18  1  0  0  0  0
 18 19  1  0  0  0  0
 18 20  1  0  0  0  0
 13 21  1  0  0  0  0
 21 22  1  0  0  0  0
M  END
> <VConfSearch Rank>
121

> <Conf_Id>
141

> <Delta U+W>
0.000

> <U+W>
6.423

> <U>
8.781

> <W>
-2.358

> <W(PB)>
-4.373

> <W(SA)>
2.015

> <Valence>
13.328

> <Coulomb>
-8.387

> <VdW>
3.840

> <VdW6>
-9.744

> <VdW12>
13.584

> <Bond>
0.436

> <Angle>
3.478

> <Pdih>
9.415

> <Idih>
0.000

> <Tether>
0.000

$$$$
VeraChem MOL file


 22 22  0  0  0  0  0  0  0  0999 V2000     
   18.2690   19.9495   22.6878 C   0  0  0  0  0  0  0  0  0  0  0  0
   18.4434   20.7726   21.9817 H   0  0  0  0  0  0  0  0  0  0  0  0
   17.1824   19.9089   22.8444 H   0  0  0  0  0  0  0  0  0  0  0  0
   18.9299   20.2445   24.0560 C   0  0  0  0  0  0  0  0  0  0  0  0
   18.3925   21.0759   24.5322 H   0  0  0  0  0  0  0  0  0  0  0  0
   18.7923   19.3807   24.7207 H   0  0  0  0  0  0  0  0  0  0  0  0
   20.4308   20.6109   23.9978 C   0  0  0  0  0  0  0  0  0  0  0  0
   20.7946   20.7288   25.0276 H   0  0  0  0  0  0  0  0  0  0  0  0
   20.5480   21.5952   23.5241 H   0  0  0  0  0  0  0  0  0  0  0  0
   21.3283   19.5791   23.2718 C   0  0  0  0  0  0  0  0  0  0  0  0
   22.3729   19.8304   23.4980 H   0  0  0  0  0  0  0  0  0  0  0  0
   21.1627   18.5711   23.6738 H   0  0  0  0  0  0  0  0  0  0  0  0
   21.1302   19.5900   21.7394 C   0  0  0  0  0  0  0  0  0  0  0  0
   20.8912   20.6178   21.4305 H   0  0  0  0  0  0  0  0  0  0  0  0
   20.0076   18.6572   21.2305 C   0  0  0  0  0  0  0  0  0  0  0  0
   19.7451   18.9786   20.2143 H   0  0  0  0  0  0  0  0  0  0  0  0
   20.4004   17.6365   21.1311 H   0  0  0  0  0  0  0  0  0  0  0  0
   18.7152   18.5979   22.0828 C   0  0  0  0  0  0  0  0  0  0  0  0
   17.9080   18.2071   21.4485 H   0  0  0  0  0  0  0  0  0  0  0  0
   18.8395   17.8608   22.8878 H   0  0  0  0  0  0  0  0  0  0  0  0
   22.3469   19.1954   21.1171 O   0  0  0  0  0  0  0  0  0  0  0  0
   23.0282   19.8438   21.3928 H   0  0  0  0  0  0  0  0  0  0  0  0
  1  2  1  0  0  0  0
  1  3  1  0  0  0  0
  1  4  1  0  0  0  0
  4  5  1  0  0  0  0
  4  6  1  0  0  0  0
  4  7  1  0  0  0  0
  7  8  1  0  0  0  0
  7  9  1  0  0  0  0
  7 10  1  0  0  0  0
 10 11  1  0  0  0  0
 10 12  1  0  0  0  0
 10 13  1  0  0  0  0
 13 14  1  0  0  0  0
 13 15  1  0  0  0  0
 15 16  1  0  0  0  0
 15 17  1  0  0  0  0
  1 18  1  0  0  0  0
 15 18  1  0  0  0  0
 18 19  1  0  0  0  0
 18 20  1  0  0  0  0
 13 21  1  0  0  0  0
 21 22  1  0  0  0  0
M  END
> <VConfSearch Rank>
122

> <Conf_Id>
144

> <Delta U+W>
-3.291

> <U+W>
3.132

> <U>
5.411

> <W>
-2.279

> <W(PB)>
-4.300

> <W(SA)>
2.021

> <Valence>
11.909

> <Coulomb>
-8.733

> <VdW>
2.236

> <VdW6>
-8.936

> <VdW12>
11.172

> <Bond>
0.223

> <Angle>
2.457

> <Pdih>
9.228

> <Idih>
0.000

> <Tether>
0.000

$$$$
VeraChem MOL file


 22 22  0  0  0  0  0  0  0  0999 V2000     
   18.5950   19.8614   23.7019 C   0  0  0  0  0  0  0  0  0  0  0  0
   17.6916   20.2736   24.1718 H   0  0  0  0  0  0  0  0  0  0  0  0
   18.9015   19.0112   24.3263 H   0  0  0  0  0  0  0  0  0  0  0  0
   19.6795   20.9641   23.7014 C   0  0  0  0  0  0  0  0  0  0  0  0
   19.5196   21.6338   22.8454 H   0  0  0  0  0  0  0  0  0  0  0  0
   19.5480   21.5922   24.5931 H   0  0  0  0  0  0  0  0  0  0  0  0
   21.1392   20.4491   23.6923 C   0  0  0  0  0  0  0  0  0  0  0  0
   21.4419   20.2146   24.7220 H   0  0  0  0  0  0  0  0  0  0  0  0
   21.7908   21.2729   23.3703 H   0  0  0  0  0  0  0  0  0  0  0  0
   21.4238   19.2076   22.8116 C   0  0  0  0  0  0  0  0  0  0  0  0
   22.5072   19.1614   22.6362 H   0  0  0  0  0  0  0  0  0  0  0  0
   21.1749   18.3000   23.3766 H   0  0  0  0  0  0  0  0  0  0  0  0
   20.6810   19.1856   21.4568 C   0  0  0  0  0  0  0  0  0  0  0  0
   20.5847   20.2113   21.0730 H   0  0  0  0  0  0  0  0  0  0  0  0
   19.2819   18.5367   21.5587 C   0  0  0  0  0  0  0  0  0  0  0  0
   18.9190   18.3222   20.5446 H   0  0  0  0  0  0  0  0  0  0  0  0
   19.3645   17.5652   22.0631 H   0  0  0  0  0  0  0  0  0  0  0  0
   18.2118   19.3920   22.2778 C   0  0  0  0  0  0  0  0  0  0  0  0
   17.9683   20.2663   21.6587 H   0  0  0  0  0  0  0  0  0  0  0  0
   17.2868   18.8028   22.3404 H   0  0  0  0  0  0  0  0  0  0  0  0
   21.4503   18.4218   20.5377 O   0  0  0  0  0  0  0  0  0  0  0  0
   21.5148   17.5197   20.9137 H   0  0  0  0  0  0  0  0  0  0  0  0
  1  2  1  0  0  0  0
  1  3  1  0  0  0  0
  1  4  1  0  0  0  0
  4  5  1  0  0  0  0
  4  6  1  0  0  0  0
  4  7  1  0  0  0  0
  7  8  1  0  0  0  0
  7  9  1  0  0  0  0
  7 10  1  0  0  0  0
 10 11  1  0  0  0  0
 10 12  1  0  0  0  0
 10 13  1  0  0  0  0
 13 14  1  0  0  0  0
 13 15  1  0  0  0  0
 15 16  1  0  0  0  0
 15 17  1  0  0  0  0
  1 18  1  0  0  0  0
 15 18  1  0  0  0  0
 18 19  1  0  0  0  0
 18 20  1  0  0  0  0
 13 21  1  0  0  0  0
 21 22  1  0  0  0  0
M  END
> <VConfSearch Rank>
123

> <Conf_Id>
76

> <Delta U+W>
-3.175

> <U+W>
3.248

> <U>
5.336

> <W>
-2.088

> <W(PB)>
-4.098

> <W(SA)>
2.010

> <Valence>
12.390

> <Coulomb>
-9.270

> <VdW>
2.216

> <VdW6>
-8.967

> <VdW12>
11.183

> <Bond>
0.218

> <Angle>
2.426

> <Pdih>
9.745

> <Idih>
0.000

> <Tether>
0.000

$$$$
VeraChem MOL file


 22 22  0  0  0  0  0  0  0  0999 V2000     
   19.1803   20.7705   21.5667 C   0  0  0  0  0  0  0  0  0  0  0  0
   19.6333   21.5532   20.9430 H   0  0  0  0  0  0  0  0  0  0  0  0
   18.1063   20.7900   21.3362 H   0  0  0  0  0  0  0  0  0  0  0  0
   19.3815   21.1579   23.0513 C   0  0  0  0  0  0  0  0  0  0  0  0
   20.3611   21.6392   23.1751 H   0  0  0  0  0  0  0  0  0  0  0  0
   18.6414   21.9293   23.3042 H   0  0  0  0  0  0  0  0  0  0  0  0
   19.2519   19.9892   24.0558 C   0  0  0  0  0  0  0  0  0  0  0  0
   18.4624   19.2905   23.7471 H   0  0  0  0  0  0  0  0  0  0  0  0
   18.9318   20.4033   25.0214 H   0  0  0  0  0  0  0  0  0  0  0  0
   20.5908   19.2423   24.2833 C   0  0  0  0  0  0  0  0  0  0  0  0
   21.3755   19.9723   24.5195 H   0  0  0  0  0  0  0  0  0  0  0  0
   20.4936   18.6140   25.1784 H   0  0  0  0  0  0  0  0  0  0  0  0
   21.0784   18.3455   23.1227 C   0  0  0  0  0  0  0  0  0  0  0  0
   22.1071   18.0431   23.3663 H   0  0  0  0  0  0  0  0  0  0  0  0
   21.1215   19.0305   21.7337 C   0  0  0  0  0  0  0  0  0  0  0  0
   21.7568   19.9245   21.7793 H   0  0  0  0  0  0  0  0  0  0  0  0
   21.6261   18.3441   21.0416 H   0  0  0  0  0  0  0  0  0  0  0  0
   19.7378   19.3934   21.1345 C   0  0  0  0  0  0  0  0  0  0  0  0
   19.8151   19.3898   20.0389 H   0  0  0  0  0  0  0  0  0  0  0  0
   19.0057   18.6119   21.3767 H   0  0  0  0  0  0  0  0  0  0  0  0
   20.2731   17.1723   23.0652 O   0  0  0  0  0  0  0  0  0  0  0  0
   20.5806   16.6608   22.2892 H   0  0  0  0  0  0  0  0  0  0  0  0
  1  2  1  0  0  0  0
  1  3  1  0  0  0  0
  1  4  1  0  0  0  0
  4  5  1  0  0  0  0
  4  6  1  0  0  0  0
  4  7  1  0  0  0  0
  7  8  1  0  0  0  0
  7  9  1  0  0  0  0
  7 10  1  0  0  0  0
 10 11  1  0  0  0  0
 10 12  1  0  0  0  0
 10 13  1  0  0  0  0
 13 14  1  0  0  0  0
 13 15  1  0  0  0  0
 15 16  1  0  0  0  0
 15 17  1  0  0  0  0
  1 18  1  0  0  0  0
 15 18  1  0  0  0  0
 18 19  1  0  0  0  0
 18 20  1  0  0  0  0
 13 21  1  0  0  0  0
 21 22  1  0  0  0  0
M  END
> <VConfSearch Rank>
124

> <Conf_Id>
95

> <Delta U+W>
-2.289

> <U+W>
4.134

> <U>
6.373

> <W>
-2.240

> <W(PB)>
-4.254

> <W(SA)>
2.015

> <Valence>
12.093

> <Coulomb>
-8.058

> <VdW>
2.339

> <VdW6>
-9.683

> <VdW12>
12.022

> <Bond>
0.268

> <Angle>
3.005

> <Pdih>
8.820

> <Idih>
0.000

> <Tether>
0.000

$$$$
VeraChem MOL file


 22 22  0  0  0  0  0  0  0  0999 V2000     
   19.7558   20.8937   21.3035 C   0  0  0  0  0  0  0  0  0  0  0  0
   20.5092   21.4533   20.7326 H   0  0  0  0  0  0  0  0  0  0  0  0
   18.7851   21.1791   20.8756 H   0  0  0  0  0  0  0  0  0  0  0  0
   19.8134   21.3678   22.7753 C   0  0  0  0  0  0  0  0  0  0  0  0
   20.8550   21.5818   23.0503 H   0  0  0  0  0  0  0  0  0  0  0  0
   19.2886   22.3305   22.8425 H   0  0  0  0  0  0  0  0  0  0  0  0
   19.2002   20.3889   23.8036 C   0  0  0  0  0  0  0  0  0  0  0  0
   18.3052   19.8997   23.3956 H   0  0  0  0  0  0  0  0  0  0  0  0
   18.8604   20.9735   24.6692 H   0  0  0  0  0  0  0  0  0  0  0  0
   20.2214   19.3406   24.3132 C   0  0  0  0  0  0  0  0  0  0  0  0
   21.1359   19.8565   24.6333 H   0  0  0  0  0  0  0  0  0  0  0  0
   19.8193   18.8712   25.2204 H   0  0  0  0  0  0  0  0  0  0  0  0
   20.6068   18.2234   23.3167 C   0  0  0  0  0  0  0  0  0  0  0  0
   21.4534   17.6800   23.7607 H   0  0  0  0  0  0  0  0  0  0  0  0
   21.0651   18.7162   21.9212 C   0  0  0  0  0  0  0  0  0  0  0  0
   21.9201   19.3963   22.0262 H   0  0  0  0  0  0  0  0  0  0  0  0
   21.4431   17.8414   21.3765 H   0  0  0  0  0  0  0  0  0  0  0  0
   19.9589   19.3792   21.0597 C   0  0  0  0  0  0  0  0  0  0  0  0
   20.2064   19.2385   19.9990 H   0  0  0  0  0  0  0  0  0  0  0  0
   19.0061   18.8538   21.2070 H   0  0  0  0  0  0  0  0  0  0  0  0
   19.5182   17.3148   23.1817 O   0  0  0  0  0  0  0  0  0  0  0  0
   19.2588   17.0498   24.0876 H   0  0  0  0  0  0  0  0  0  0  0  0
  1  2  1  0  0  0  0
  1  3  1  0  0  0  0
  1  4  1  0  0  0  0
  4  5  1  0  0  0  0
  4  6  1  0  0  0  0
  4  7  1  0  0  0  0
  7  8  1  0  0  0  0
  7  9  1  0  0  0  0
  7 10  1  0  0  0  0
 10 11  1  0  0  0  0
 10 12  1  0  0  0  0
 10 13  1  0  0  0  0
 13 14  1  0  0  0  0
 13 15  1  0  0  0  0
 15 16  1  0  0  0  0
 15 17  1  0  0  0  0
  1 18  1  0  0  0  0
 15 18  1  0  0  0  0
 18 19  1  0  0  0  0
 18 20  1  0  0  0  0
 13 21  1  0  0  0  0
 21 22  1  0  0  0  0
M  END
> <VConfSearch Rank>
125

> <Conf_Id>
41

> <Delta U+W>
-2.114

> <U+W>
4.310

> <U>
6.598

> <W>
-2.289

> <W(PB)>
-4.294

> <W(SA)>
2.005

> <Valence>
12.082

> <Coulomb>
-7.801

> <VdW>
2.317

> <VdW6>
-9.658

> <VdW12>
11.975

> <Bond>
0.267

> <Angle>
3.051

> <Pdih>
8.764

> <Idih>
0.000

> <Tether>
0.000

$$$$
VeraChem MOL file


 22 22  0  0  0  0  0  0  0  0999 V2000     
   20.0575   20.9699   21.8635 C   0  0  0  0  0  0  0  0  0  0  0  0
   19.9665   22.0134   21.5328 H   0  0  0  0  0  0  0  0  0  0  0  0
   20.6845   20.4637   21.1166 H   0  0  0  0  0  0  0  0  0  0  0  0
   18.6396   20.3567   21.8926 C   0  0  0  0  0  0  0  0  0  0  0  0
   18.0492   20.8335   22.6867 H   0  0  0  0  0  0  0  0  0  0  0  0
   18.1315   20.6031   20.9504 H   0  0  0  0  0  0  0  0  0  0  0  0
   18.6044   18.8234   22.0743 C   0  0  0  0  0  0  0  0  0  0  0  0
   19.0082   18.3395   21.1750 H   0  0  0  0  0  0  0  0  0  0  0  0
   17.5523   18.5131   22.1277 H   0  0  0  0  0  0  0  0  0  0  0  0
   19.3351   18.2916   23.3370 C   0  0  0  0  0  0  0  0  0  0  0  0
   18.9873   18.8296   24.2280 H   0  0  0  0  0  0  0  0  0  0  0  0
   19.0289   17.2478   23.4829 H   0  0  0  0  0  0  0  0  0  0  0  0
   20.8845   18.3096   23.2829 C   0  0  0  0  0  0  0  0  0  0  0  0
   21.2355   17.6310   24.0738 H   0  0  0  0  0  0  0  0  0  0  0  0
   21.5556   19.6798   23.5614 C   0  0  0  0  0  0  0  0  0  0  0  0
   21.8284   19.7135   24.6242 H   0  0  0  0  0  0  0  0  0  0  0  0
   22.5082   19.7286   23.0178 H   0  0  0  0  0  0  0  0  0  0  0  0
   20.7408   20.9594   23.2487 C   0  0  0  0  0  0  0  0  0  0  0  0
   19.9913   21.1256   24.0343 H   0  0  0  0  0  0  0  0  0  0  0  0
   21.4254   21.8163   23.3091 H   0  0  0  0  0  0  0  0  0  0  0  0
   21.3456   17.7941   22.0369 O   0  0  0  0  0  0  0  0  0  0  0  0
   22.3236   17.7925   22.0761 H   0  0  0  0  0  0  0  0  0  0  0  0
  1  2  1  0  0  0  0
  1  3  1  0  0  0  0
  1  4  1  0  0  0  0
  4  5  1  0  0  0  0
  4  6  1  0  0  0  0
  4  7  1  0  0  0  0
  7  8  1  0  0  0  0
  7  9  1  0  0  0  0
  7 10  1  0  0  0  0
 10 11  1  0  0  0  0
 10 12  1  0  0  0  0
 10 13  1  0  0  0  0
 13 14  1  0  0  0  0
 13 15  1  0  0  0  0
 15 16  1  0  0  0  0
 15 17  1  0  0  0  0
  1 18  1  0  0  0  0
 15 18  1  0  0  0  0
 18 19  1  0  0  0  0
 18 20  1  0  0  0  0
 13 21  1  0  0  0  0
 21 22  1  0  0  0  0
M  END
> <VConfSearch Rank>
126

> <Conf_Id>
104

> <Delta U+W>
-1.172

> <U+W>
5.252

> <U>
7.482

> <W>
-2.230

> <W(PB)>
-4.220

> <W(SA)>
1.990

> <Valence>
12.309

> <Coulomb>
-7.084

> <VdW>
2.258

> <VdW6>
-9.770

> <VdW12>
12.028

> <Bond>
0.284

> <Angle>
3.491

> <Pdih>
8.535

> <Idih>
0.000

> <Tether>
0.000

$$$$
VeraChem MOL file


 22 22  0  0  0  0  0  0  0  0999 V2000     
   18.8412   19.5284   21.5700 C   0  0  0  0  0  0  0  0  0  0  0  0
   18.6605   18.4575   21.7339 H   0  0  0  0  0  0  0  0  0  0  0  0
   18.1319   19.8387   20.7906 H   0  0  0  0  0  0  0  0  0  0  0  0
   20.2701   19.7714   21.0328 C   0  0  0  0  0  0  0  0  0  0  0  0
   20.2824   19.5490   19.9569 H   0  0  0  0  0  0  0  0  0  0  0  0
   20.5086   20.8407   21.1044 H   0  0  0  0  0  0  0  0  0  0  0  0
   21.3900   18.9338   21.7005 C   0  0  0  0  0  0  0  0  0  0  0  0
   22.3404   19.4745   21.5922 H   0  0  0  0  0  0  0  0  0  0  0  0
   21.5170   18.0046   21.1283 H   0  0  0  0  0  0  0  0  0  0  0  0
   21.1936   18.5423   23.1903 C   0  0  0  0  0  0  0  0  0  0  0  0
   20.5040   17.6903   23.2495 H   0  0  0  0  0  0  0  0  0  0  0  0
   22.1515   18.1639   23.5703 H   0  0  0  0  0  0  0  0  0  0  0  0
   20.6993   19.6488   24.1502 C   0  0  0  0  0  0  0  0  0  0  0  0
   20.9871   19.3507   25.1686 H   0  0  0  0  0  0  0  0  0  0  0  0
   19.1616   19.8028   24.1475 C   0  0  0  0  0  0  0  0  0  0  0  0
   18.7106   18.8309   24.3865 H   0  0  0  0  0  0  0  0  0  0  0  0
   18.8831   20.4691   24.9744 H   0  0  0  0  0  0  0  0  0  0  0  0
   18.5233   20.3456   22.8449 C   0  0  0  0  0  0  0  0  0  0  0  0
   17.4338   20.3576   22.9840 H   0  0  0  0  0  0  0  0  0  0  0  0
   18.8134   21.3946   22.6971 H   0  0  0  0  0  0  0  0  0  0  0  0
   21.3159   20.8891   23.8409 O   0  0  0  0  0  0  0  0  0  0  0  0
   21.0845   21.0433   22.9034 H   0  0  0  0  0  0  0  0  0  0  0  0
  1  2  1  0  0  0  0
  1  3  1  0  0  0  0
  1  4  1  0  0  0  0
  4  5  1  0  0  0  0
  4  6  1  0  0  0  0
  4  7  1  0  0  0  0
  7  8  1  0  0  0  0
  7  9  1  0  0  0  0
  7 10  1  0  0  0  0
 10 11  1  0  0  0  0
 10 12  1  0  0  0  0
 10 13  1  0  0  0  0
 13 14  1  0  0  0  0
 13 15  1  0  0  0  0
 15 16  1  0  0  0  0
 15 17  1  0  0  0  0
  1 18  1  0  0  0  0
 15 18  1  0  0  0  0
 18 19  1  0  0  0  0
 18 20  1  0  0  0  0
 13 21  1  0  0  0  0
 21 22  1  0  0  0  0
M  END
> <VConfSearch Rank>
127

> <Conf_Id>
99

> <Delta U+W>
-3.852

> <U+W>
2.572

> <U>
3.922

> <W>
-1.350

> <W(PB)>
-3.345

> <W(SA)>
1.995

> <Valence>
12.571

> <Coulomb>
-10.581

> <VdW>
1.932

> <VdW6>
-10.483

> <VdW12>
12.415

> <Bond>
0.268

> <Angle>
3.728

> <Pdih>
8.575

> <Idih>
0.000

> <Tether>
0.000

$$$$
VeraChem MOL file


 22 22  0  0  0  0  0  0  0  0999 V2000     
   19.2575   20.4969   21.5396 C   0  0  0  0  0  0  0  0  0  0  0  0
   18.8457   21.4465   21.1707 H   0  0  0  0  0  0  0  0  0  0  0  0
   19.0280   19.7647   20.7539 H   0  0  0  0  0  0  0  0  0  0  0  0
   18.5058   20.1285   22.8523 C   0  0  0  0  0  0  0  0  0  0  0  0
   17.7687   20.9185   23.0515 H   0  0  0  0  0  0  0  0  0  0  0  0
   17.9111   19.2171   22.7047 H   0  0  0  0  0  0  0  0  0  0  0  0
   19.3865   19.9742   24.1185 C   0  0  0  0  0  0  0  0  0  0  0  0
   18.7261   19.9101   24.9940 H   0  0  0  0  0  0  0  0  0  0  0  0
   19.9684   20.8903   24.2787 H   0  0  0  0  0  0  0  0  0  0  0  0
   20.3317   18.7410   24.1448 C   0  0  0  0  0  0  0  0  0  0  0  0
   21.1449   18.9472   24.8526 H   0  0  0  0  0  0  0  0  0  0  0  0
   19.7824   17.8922   24.5735 H   0  0  0  0  0  0  0  0  0  0  0  0
   20.9537   18.2668   22.8083 C   0  0  0  0  0  0  0  0  0  0  0  0
   21.7482   17.5505   23.0621 H   0  0  0  0  0  0  0  0  0  0  0  0
   21.6014   19.3631   21.9269 C   0  0  0  0  0  0  0  0  0  0  0  0
   22.5648   19.6428   22.3724 H   0  0  0  0  0  0  0  0  0  0  0  0
   21.8507   18.9058   20.9601 H   0  0  0  0  0  0  0  0  0  0  0  0
   20.7938   20.6638   21.6608 C   0  0  0  0  0  0  0  0  0  0  0  0
   21.0257   21.4082   22.4326 H   0  0  0  0  0  0  0  0  0  0  0  0
   21.1687   21.1071   20.7283 H   0  0  0  0  0  0  0  0  0  0  0  0
   19.9804   17.5625   22.0535 O   0  0  0  0  0  0  0  0  0  0  0  0
   19.3015   18.2381   21.8542 H   0  0  0  0  0  0  0  0  0  0  0  0
  1  2  1  0  0  0  0
  1  3  1  0  0  0  0
  1  4  1  0  0  0  0
  4  5  1  0  0  0  0
  4  6  1  0  0  0  0
  4  7  1  0  0  0  0
  7  8  1  0  0  0  0
  7  9  1  0  0  0  0
  7 10  1  0  0  0  0
 10 11  1  0  0  0  0
 10 12  1  0  0  0  0
 10 13  1  0  0  0  0
 13 14  1  0  0  0  0
 13 15  1  0  0  0  0
 15 16  1  0  0  0  0
 15 17  1  0  0  0  0
  1 18  1  0  0  0  0
 15 18  1  0  0  0  0
 18 19  1  0  0  0  0
 18 20  1  0  0  0  0
 13 21  1  0  0  0  0
 21 22  1  0  0  0  0
M  END
> <VConfSearch Rank>
128

> <Conf_Id>
98

> <Delta U+W>
0.930

> <U+W>
7.353

> <U>
8.455

> <W>
-1.102

> <W(PB)>
-3.101

> <W(SA)>
2.000

> <Valence>
15.601

> <Coulomb>
-10.573

> <VdW>
3.427

> <VdW6>
-11.360

> <VdW12>
14.787

> <Bond>
0.471

> <Angle>
5.445

> <Pdih>
9.685

> <Idih>
0.000

> <Tether>
0.000

$$$$
VeraChem MOL file


 22 22  0  0  0  0  0  0  0  0999 V2000     
   21.5861   20.2283   22.7321 C   0  0  0  0  0  0  0  0  0  0  0  0
   21.9782   19.2055   22.8023 H   0  0  0  0  0  0  0  0  0  0  0  0
   22.4749   20.8735   22.7096 H   0  0  0  0  0  0  0  0  0  0  0  0
   20.7654   20.5632   24.0034 C   0  0  0  0  0  0  0  0  0  0  0  0
   21.4352   20.4548   24.8674 H   0  0  0  0  0  0  0  0  0  0  0  0
   20.4735   21.6220   23.9844 H   0  0  0  0  0  0  0  0  0  0  0  0
   19.5048   19.6906   24.2566 C   0  0  0  0  0  0  0  0  0  0  0  0
   18.5995   20.2503   23.9881 H   0  0  0  0  0  0  0  0  0  0  0  0
   19.4197   19.5174   25.3380 H   0  0  0  0  0  0  0  0  0  0  0  0
   19.4989   18.3187   23.5315 C   0  0  0  0  0  0  0  0  0  0  0  0
   20.4348   17.7907   23.7526 H   0  0  0  0  0  0  0  0  0  0  0  0
   18.7120   17.6960   23.9781 H   0  0  0  0  0  0  0  0  0  0  0  0
   19.2902   18.3654   21.9894 C   0  0  0  0  0  0  0  0  0  0  0  0
   20.0325   17.6991   21.5268 H   0  0  0  0  0  0  0  0  0  0  0  0
   19.4179   19.7620   21.3310 C   0  0  0  0  0  0  0  0  0  0  0  0
   19.1314   19.6842   20.2741 H   0  0  0  0  0  0  0  0  0  0  0  0
   18.6862   20.4477   21.7749 H   0  0  0  0  0  0  0  0  0  0  0  0
   20.8281   20.3999   21.3947 C   0  0  0  0  0  0  0  0  0  0  0  0
   21.4476   19.9736   20.5938 H   0  0  0  0  0  0  0  0  0  0  0  0
   20.7365   21.4707   21.1672 H   0  0  0  0  0  0  0  0  0  0  0  0
   17.9877   17.8731   21.6958 O   0  0  0  0  0  0  0  0  0  0  0  0
   17.9042   17.8592   20.7196 H   0  0  0  0  0  0  0  0  0  0  0  0
  1  2  1  0  0  0  0
  1  3  1  0  0  0  0
  1  4  1  0  0  0  0
  4  5  1  0  0  0  0
  4  6  1  0  0  0  0
  4  7  1  0  0  0  0
  7  8  1  0  0  0  0
  7  9  1  0  0  0  0
  7 10  1  0  0  0  0
 10 11  1  0  0  0  0
 10 12  1  0  0  0  0
 10 13  1  0  0  0  0
 13 14  1  0  0  0  0
 13 15  1  0  0  0  0
 15 16  1  0  0  0  0
 15 17  1  0  0  0  0
  1 18  1  0  0  0  0
 15 18  1  0  0  0  0
 18 19  1  0  0  0  0
 18 20  1  0  0  0  0
 13 21  1  0  0  0  0
 21 22  1  0  0  0  0
M  END
> <VConfSearch Rank>
129

> <Conf_Id>
141

> <Delta U+W>
0.000

> <U+W>
6.423

> <U>
8.781

> <W>
-2.358

> <W(PB)>
-4.373

> <W(SA)>
2.015

> <Valence>
13.328

> <Coulomb>
-8.387

> <VdW>
3.840

> <VdW6>
-9.744

> <VdW12>
13.584

> <Bond>
0.436

> <Angle>
3.478

> <Pdih>
9.415

> <Idih>
0.000

> <Tether>
0.000

$$$$
VeraChem MOL file


 22 22  0  0  0  0  0  0  0  0999 V2000     
   20.4818   21.2785   22.8298 C   0  0  0  0  0  0  0  0  0  0  0  0
   20.8081   21.2643   21.7810 H   0  0  0  0  0  0  0  0  0  0  0  0
   20.6486   22.3044   23.1858 H   0  0  0  0  0  0  0  0  0  0  0  0
   21.3528   20.3344   23.6932 C   0  0  0  0  0  0  0  0  0  0  0  0
   22.3652   20.7556   23.7599 H   0  0  0  0  0  0  0  0  0  0  0  0
   20.9667   20.3216   24.7216 H   0  0  0  0  0  0  0  0  0  0  0  0
   21.4678   18.8832   23.1723 C   0  0  0  0  0  0  0  0  0  0  0  0
   22.0495   18.3028   23.9014 H   0  0  0  0  0  0  0  0  0  0  0  0
   22.0561   18.8742   22.2445 H   0  0  0  0  0  0  0  0  0  0  0  0
   20.1171   18.1650   22.9335 C   0  0  0  0  0  0  0  0  0  0  0  0
   20.3292   17.0967   22.7953 H   0  0  0  0  0  0  0  0  0  0  0  0
   19.4778   18.2370   23.8229 H   0  0  0  0  0  0  0  0  0  0  0  0
   19.3724   18.6941   21.6873 C   0  0  0  0  0  0  0  0  0  0  0  0
   20.1213   18.9965   20.9414 H   0  0  0  0  0  0  0  0  0  0  0  0
   18.4435   19.8995   21.9582 C   0  0  0  0  0  0  0  0  0  0  0  0
   18.2329   20.3788   20.9934 H   0  0  0  0  0  0  0  0  0  0  0  0
   17.4764   19.5365   22.3311 H   0  0  0  0  0  0  0  0  0  0  0  0
   18.9698   20.9736   22.9428 C   0  0  0  0  0  0  0  0  0  0  0  0
   18.4051   21.8996   22.7685 H   0  0  0  0  0  0  0  0  0  0  0  0
   18.7335   20.6748   23.9731 H   0  0  0  0  0  0  0  0  0  0  0  0
   18.5830   17.6427   21.1444 O   0  0  0  0  0  0  0  0  0  0  0  0
   19.2004   16.9185   20.9096 H   0  0  0  0  0  0  0  0  0  0  0  0
  1  2  1  0  0  0  0
  1  3  1  0  0  0  0
  1  4  1  0  0  0  0
  4  5  1  0  0  0  0
  4  6  1  0  0  0  0
  4  7  1  0  0  0  0
  7  8  1  0  0  0  0
  7  9  1  0  0  0  0
  7 10  1  0  0  0  0
 10 11  1  0  0  0  0
 10 12  1  0  0  0  0
 10 13  1  0  0  0  0
 13 14  1  0  0  0  0
 13 15  1  0  0  0  0
 15 16  1  0  0  0  0
 15 17  1  0  0  0  0
  1 18  1  0  0  0  0
 15 18  1  0  0  0  0
 18 19  1  0  0  0  0
 18 20  1  0  0  0  0
 13 21  1  0  0  0  0
 21 22  1  0  0  0  0
M  END
> <VConfSearch Rank>
130

> <Conf_Id>
144

> <Delta U+W>
-3.291

> <U+W>
3.132

> <U>
5.411

> <W>
-2.279

> <W(PB)>
-4.300

> <W(SA)>
2.021

> <Valence>
11.909

> <Coulomb>
-8.733

> <VdW>
2.236

> <VdW6>
-8.936

> <VdW12>
11.172

> <Bond>
0.223

> <Angle>
2.457

> <Pdih>
9.228

> <Idih>
0.000

> <Tether>
0.000

$$$$
VeraChem MOL file


 22 22  0  0  0  0  0  0  0  0999 V2000     
   20.6279   19.6550   24.2405 C   0  0  0  0  0  0  0  0  0  0  0  0
   21.2561   19.5260   25.1325 H   0  0  0  0  0  0  0  0  0  0  0  0
   19.8535   20.3834   24.5170 H   0  0  0  0  0  0  0  0  0  0  0  0
   19.9981   18.2849   23.8967 C   0  0  0  0  0  0  0  0  0  0  0  0
   20.7181   17.6852   23.3234 H   0  0  0  0  0  0  0  0  0  0  0  0
   19.8292   17.7276   24.8284 H   0  0  0  0  0  0  0  0  0  0  0  0
   18.6541   18.3536   23.1321 C   0  0  0  0  0  0  0  0  0  0  0  0
   17.8388   18.4965   23.8545 H   0  0  0  0  0  0  0  0  0  0  0  0
   18.4734   17.3740   22.6687 H   0  0  0  0  0  0  0  0  0  0  0  0
   18.5360   19.4534   22.0483 C   0  0  0  0  0  0  0  0  0  0  0  0
   17.7051   19.1818   21.3833 H   0  0  0  0  0  0  0  0  0  0  0  0
   18.2403   20.3976   22.5236 H   0  0  0  0  0  0  0  0  0  0  0  0
   19.8138   19.6817   21.2100 C   0  0  0  0  0  0  0  0  0  0  0  0
   20.3387   18.7259   21.0711 H   0  0  0  0  0  0  0  0  0  0  0  0
   20.7704   20.7097   21.8558 C   0  0  0  0  0  0  0  0  0  0  0  0
   21.5158   21.0140   21.1089 H   0  0  0  0  0  0  0  0  0  0  0  0
   20.2113   21.6185   22.1141 H   0  0  0  0  0  0  0  0  0  0  0  0
   21.5269   20.2066   23.1081 C   0  0  0  0  0  0  0  0  0  0  0  0
   22.2521   19.4369   22.8104 H   0  0  0  0  0  0  0  0  0  0  0  0
   22.1217   21.0395   23.5072 H   0  0  0  0  0  0  0  0  0  0  0  0
   19.4292   20.1834   19.9369 O   0  0  0  0  0  0  0  0  0  0  0  0
   18.9655   21.0301   20.1019 H   0  0  0  0  0  0  0  0  0  0  0  0
  1  2  1  0  0  0  0
  1  3  1  0  0  0  0
  1  4  1  0  0  0  0
  4  5  1  0  0  0  0
  4  6  1  0  0  0  0
  4  7  1  0  0  0  0
  7  8  1  0  0  0  0
  7  9  1  0  0  0  0
  7 10  1  0  0  0  0
 10 11  1  0  0  0  0
 10 12  1  0  0  0  0
 10 13  1  0  0  0  0
 13 14  1  0  0  0  0
 13 15  1  0  0  0  0
 15 16  1  0  0  0  0
 15 17  1  0  0  0  0
  1 18  1  0  0  0  0
 15 18  1  0  0  0  0
 18 19  1  0  0  0  0
 18 20  1  0  0  0  0
 13 21  1  0  0  0  0
 21 22  1  0  0  0  0
M  END
> <VConfSearch Rank>
131

> <Conf_Id>
76

> <Delta U+W>
-3.175

> <U+W>
3.248

> <U>
5.336

> <W>
-2.088

> <W(PB)>
-4.098

> <W(SA)>
2.010

> <Valence>
12.390

> <Coulomb>
-9.270

> <VdW>
2.216

> <VdW6>
-8.967

> <VdW12>
11.183

> <Bond>
0.218

> <Angle>
2.426

> <Pdih>
9.745

> <Idih>
0.000

> <Tether>
0.000

$$$$
VeraChem MOL file


 22 22  0  0  0  0  0  0  0  0999 V2000     
   20.0480   17.9729   21.6850 C   0  0  0  0  0  0  0  0  0  0  0  0
   20.7258   17.6960   20.8660 H   0  0  0  0  0  0  0  0  0  0  0  0
   19.4074   17.0961   21.8510 H   0  0  0  0  0  0  0  0  0  0  0  0
   19.1686   19.1533   21.2073 C   0  0  0  0  0  0  0  0  0  0  0  0
   19.7641   19.8186   20.5676 H   0  0  0  0  0  0  0  0  0  0  0  0
   18.3811   18.7484   20.5572 H   0  0  0  0  0  0  0  0  0  0  0  0
   18.5115   19.9789   22.3378 C   0  0  0  0  0  0  0  0  0  0  0  0
   18.2002   19.3310   23.1685 H   0  0  0  0  0  0  0  0  0  0  0  0
   17.5914   20.4287   21.9409 H   0  0  0  0  0  0  0  0  0  0  0  0
   19.4179   21.1290   22.8455 C   0  0  0  0  0  0  0  0  0  0  0  0
   19.7711   21.7155   21.9878 H   0  0  0  0  0  0  0  0  0  0  0  0
   18.8071   21.8188   23.4427 H   0  0  0  0  0  0  0  0  0  0  0  0
   20.6371   20.7118   23.6990 C   0  0  0  0  0  0  0  0  0  0  0  0
   21.2622   21.6085   23.8186 H   0  0  0  0  0  0  0  0  0  0  0  0
   21.5326   19.6118   23.0757 C   0  0  0  0  0  0  0  0  0  0  0  0
   21.8875   19.9359   22.0888 H   0  0  0  0  0  0  0  0  0  0  0  0
   22.4317   19.5242   23.6992 H   0  0  0  0  0  0  0  0  0  0  0  0
   20.8773   18.2102   22.9696 C   0  0  0  0  0  0  0  0  0  0  0  0
   21.6665   17.4472   23.0070 H   0  0  0  0  0  0  0  0  0  0  0  0
   20.2482   18.0208   23.8493 H   0  0  0  0  0  0  0  0  0  0  0  0
   20.1909   20.3069   24.9894 O   0  0  0  0  0  0  0  0  0  0  0  0
   20.9840   20.0034   25.4762 H   0  0  0  0  0  0  0  0  0  0  0  0
  1  2  1  0  0  0  0
  1  3  1  0  0  0  0
  1  4  1  0  0  0  0
  4  5  1  0  0  0  0
  4  6  1  0  0  0  0
  4  7  1  0  0  0  0
  7  8  1  0  0  0  0
  7  9  1  0  0  0  0
  7 10  1  0  0  0  0
 10 11  1  0  0  0  0
 10 12  1  0  0  0  0
 10 13  1  0  0  0  0
 13 14  1  0  0  0  0
 13 15  1  0  0  0  0
 15 16  1  0  0  0  0
 15 17  1  0  0  0  0
  1 18  1  0  0  0  0
 15 18  1  0  0  0  0
 18 19  1  0  0  0  0
 18 20  1  0  0  0  0
 13 21  1  0  0  0  0
 21 22  1  0  0  0  0
M  END
> <VConfSearch Rank>
132

> <Conf_Id>
95

> <Delta U+W>
-2.289

> <U+W>
4.134

> <U>
6.373

> <W>
-2.240

> <W(PB)>
-4.254

> <W(SA)>
2.015

> <Valence>
12.093

> <Coulomb>
-8.058

> <VdW>
2.339

> <VdW6>
-9.683

> <VdW12>
12.022

> <Bond>
0.268

> <Angle>
3.005

> <Pdih>
8.820

> <Idih>
0.000

> <Tether>
0.000

$$$$
VeraChem MOL file


 22 22  0  0  0  0  0  0  0  0999 V2000     
   20.9368   18.3012   21.6602 C   0  0  0  0  0  0  0  0  0  0  0  0
   21.2408   18.3635   20.6064 H   0  0  0  0  0  0  0  0  0  0  0  0
   21.2873   17.3220   22.0139 H   0  0  0  0  0  0  0  0  0  0  0  0
   19.3909   18.3316   21.7205 C   0  0  0  0  0  0  0  0  0  0  0  0
   19.0074   19.0027   20.9402 H   0  0  0  0  0  0  0  0  0  0  0  0
   19.0213   17.3318   21.4551 H   0  0  0  0  0  0  0  0  0  0  0  0
   18.7963   18.7399   23.0885 C   0  0  0  0  0  0  0  0  0  0  0  0
   19.3923   18.3288   23.9147 H   0  0  0  0  0  0  0  0  0  0  0  0
   17.8001   18.2857   23.1757 H   0  0  0  0  0  0  0  0  0  0  0  0
   18.6305   20.2737   23.2341 C   0  0  0  0  0  0  0  0  0  0  0  0
   18.1067   20.6634   22.3517 H   0  0  0  0  0  0  0  0  0  0  0  0
   17.9627   20.4756   24.0816 H   0  0  0  0  0  0  0  0  0  0  0  0
   19.9313   21.0843   23.4351 C   0  0  0  0  0  0  0  0  0  0  0  0
   19.6611   22.1463   23.3438 H   0  0  0  0  0  0  0  0  0  0  0  0
   21.0458   20.8083   22.3948 C   0  0  0  0  0  0  0  0  0  0  0  0
   20.6697   21.0030   21.3823 H   0  0  0  0  0  0  0  0  0  0  0  0
   21.8398   21.5464   22.5667 H   0  0  0  0  0  0  0  0  0  0  0  0
   21.6788   19.3942   22.4658 C   0  0  0  0  0  0  0  0  0  0  0  0
   22.7090   19.4498   22.0894 H   0  0  0  0  0  0  0  0  0  0  0  0
   21.7699   19.0783   23.5135 H   0  0  0  0  0  0  0  0  0  0  0  0
   20.4262   20.8642   24.7525 O   0  0  0  0  0  0  0  0  0  0  0  0
   19.6819   21.0350   25.3649 H   0  0  0  0  0  0  0  0  0  0  0  0
  1  2  1  0  0  0  0
  1  3  1  0  0  0  0
  1  4  1  0  0  0  0
  4  5  1  0  0  0  0
  4  6  1  0  0  0  0
  4  7  1  0  0  0  0
  7  8  1  0  0  0  0
  7  9  1  0  0  0  0
  7 10  1  0  0  0  0
 10 11  1  0  0  0  0
 10 12  1  0  0  0  0
 10 13  1  0  0  0  0
 13 14  1  0  0  0  0
 13 15  1  0  0  0  0
 15 16  1  0  0  0  0
 15 17  1  0  0  0  0
  1 18  1  0  0  0  0
 15 18  1  0  0  0  0
 18 19  1  0  0  0  0
 18 20  1  0  0  0  0
 13 21  1  0  0  0  0
 21 22  1  0  0  0  0
M  END
> <VConfSearch Rank>
133

> <Conf_Id>
41

> <Delta U+W>
-2.114

> <U+W>
4.310

> <U>
6.598

> <W>
-2.289

> <W(PB)>
-4.294

> <W(SA)>
2.005

> <Valence>
12.082

> <Coulomb>
-7.801

> <VdW>
2.317

> <VdW6>
-9.658

> <VdW12>
11.975

> <Bond>
0.267

> <Angle>
3.051

> <Pdih>
8.764

> <Idih>
0.000

> <Tether>
0.000

$$$$
VeraChem MOL file


 22 22  0  0  0  0  0  0  0  0999 V2000     
   21.1642   18.7121   21.7502 C   0  0  0  0  0  0  0  0  0  0  0  0
   22.0530   18.2946   21.2579 H   0  0  0  0  0  0  0  0  0  0  0  0
   20.3329   18.0347   21.5110 H   0  0  0  0  0  0  0  0  0  0  0  0
   20.9113   20.1172   21.1593 C   0  0  0  0  0  0  0  0  0  0  0  0
   21.7217   20.7944   21.4617 H   0  0  0  0  0  0  0  0  0  0  0  0
   20.9661   20.0523   20.0642 H   0  0  0  0  0  0  0  0  0  0  0  0
   19.5503   20.7405   21.5392 C   0  0  0  0  0  0  0  0  0  0  0  0
   18.7422   20.1764   21.0548 H   0  0  0  0  0  0  0  0  0  0  0  0
   19.5066   21.7482   21.1049 H   0  0  0  0  0  0  0  0  0  0  0  0
   19.2790   20.8537   23.0639 C   0  0  0  0  0  0  0  0  0  0  0  0
   20.1227   21.3492   23.5609 H   0  0  0  0  0  0  0  0  0  0  0  0
   18.4204   21.5238   23.1995 H   0  0  0  0  0  0  0  0  0  0  0  0
   18.9432   19.5278   23.7941 C   0  0  0  0  0  0  0  0  0  0  0  0
   18.4756   19.8041   24.7503 H   0  0  0  0  0  0  0  0  0  0  0  0
   20.1536   18.6262   24.1508 C   0  0  0  0  0  0  0  0  0  0  0  0
   20.4463   18.8461   25.1857 H   0  0  0  0  0  0  0  0  0  0  0  0
   19.8282   17.5777   24.1601 H   0  0  0  0  0  0  0  0  0  0  0  0
   21.4240   18.7428   23.2725 C   0  0  0  0  0  0  0  0  0  0  0  0
   21.9780   19.6537   23.5369 H   0  0  0  0  0  0  0  0  0  0  0  0
   22.0893   17.9081   23.5321 H   0  0  0  0  0  0  0  0  0  0  0  0
   17.9886   18.7765   23.0489 O   0  0  0  0  0  0  0  0  0  0  0  0
   17.7868   17.9757   23.5741 H   0  0  0  0  0  0  0  0  0  0  0  0
  1  2  1  0  0  0  0
  1  3  1  0  0  0  0
  1  4  1  0  0  0  0
  4  5  1  0  0  0  0
  4  6  1  0  0  0  0
  4  7  1  0  0  0  0
  7  8  1  0  0  0  0
  7  9  1  0  0  0  0
  7 10  1  0  0  0  0
 10 11  1  0  0  0  0
 10 12  1  0  0  0  0
 10 13  1  0  0  0  0
 13 14  1  0  0  0  0
 13 15  1  0  0  0  0
 15 16  1  0  0  0  0
 15 17  1  0  0  0  0
  1 18  1  0  0  0  0
 15 18  1  0  0  0  0
 18 19  1  0  0  0  0
 18 20  1  0  0  0  0
 13 21  1  0  0  0  0
 21 22  1  0  0  0  0
M  END
> <VConfSearch Rank>
134

> <Conf_Id>
104

> <Delta U+W>
-1.172

> <U+W>
5.252

> <U>
7.482

> <W>
-2.230

> <W(PB)>
-4.220

> <W(SA)>
1.990

> <Valence>
12.309

> <Coulomb>
-7.084

> <VdW>
2.258

> <VdW6>
-9.770

> <VdW12>
12.028

> <Bond>
0.284

> <Angle>
3.491

> <Pdih>
8.535

> <Idih>
0.000

> <Tether>
0.000

$$$$
VeraChem MOL file


 22 22  0  0  0  0  0  0  0  0999 V2000     
   18.7362   19.4528   23.6308 C   0  0  0  0  0  0  0  0  0  0  0  0
   18.6270   20.5401   23.7409 H   0  0  0  0  0  0  0  0  0  0  0  0
   17.9339   19.0059   24.2337 H   0  0  0  0  0  0  0  0  0  0  0  0
   20.0864   18.9719   24.2096 C   0  0  0  0  0  0  0  0  0  0  0  0
   19.9957   18.9069   25.3027 H   0  0  0  0  0  0  0  0  0  0  0  0
   20.2779   17.9427   23.8790 H   0  0  0  0  0  0  0  0  0  0  0  0
   21.3107   19.8667   23.8902 C   0  0  0  0  0  0  0  0  0  0  0  0
   22.2164   19.2461   23.9358 H   0  0  0  0  0  0  0  0  0  0  0  0
   21.4222   20.6039   24.6971 H   0  0  0  0  0  0  0  0  0  0  0  0
   21.2928   20.6438   22.5460 C   0  0  0  0  0  0  0  0  0  0  0  0
   20.6562   21.5316   22.6532 H   0  0  0  0  0  0  0  0  0  0  0  0
   22.3030   21.0341   22.3667 H   0  0  0  0  0  0  0  0  0  0  0  0
   20.8488   19.8638   21.2872 C   0  0  0  0  0  0  0  0  0  0  0  0
   21.2572   20.3925   20.4140 H   0  0  0  0  0  0  0  0  0  0  0  0
   19.3137   19.8309   21.1119 C   0  0  0  0  0  0  0  0  0  0  0  0
   18.9391   20.8627   21.0996 H   0  0  0  0  0  0  0  0  0  0  0  0
   19.0917   19.4241   20.1167 H   0  0  0  0  0  0  0  0  0  0  0  0
   18.5150   19.0195   22.1619 C   0  0  0  0  0  0  0  0  0  0  0  0
   17.4471   19.1262   21.9280 H   0  0  0  0  0  0  0  0  0  0  0  0
   18.7356   17.9491   22.0519 H   0  0  0  0  0  0  0  0  0  0  0  0
   21.3670   18.5428   21.3106 O   0  0  0  0  0  0  0  0  0  0  0  0
   21.0303   18.1693   22.1493 H   0  0  0  0  0  0  0  0  0  0  0  0
  1  2  1  0  0  0  0
  1  3  1  0  0  0  0
  1  4  1  0  0  0  0
  4  5  1  0  0  0  0
  4  6  1  0  0  0  0
  4  7  1  0  0  0  0
  7  8  1  0  0  0  0
  7  9  1  0  0  0  0
  7 10  1  0  0  0  0
 10 11  1  0  0  0  0
 10 12  1  0  0  0  0
 10 13  1  0  0  0  0
 13 14  1  0  0  0  0
 13 15  1  0  0  0  0
 15 16  1  0  0  0  0
 15 17  1  0  0  0  0
  1 18  1  0  0  0  0
 15 18  1  0  0  0  0
 18 19  1  0  0  0  0
 18 20  1  0  0  0  0
 13 21  1  0  0  0  0
 21 22  1  0  0  0  0
M  END
> <VConfSearch Rank>
135

> <Conf_Id>
99

> <Delta U+W>
-3.852

> <U+W>
2.572

> <U>
3.922

> <W>
-1.350

> <W(PB)>
-3.345

> <W(SA)>
1.995

> <Valence>
12.571

> <Coulomb>
-10.581

> <VdW>
1.932

> <VdW6>
-10.483

> <VdW12>
12.415

> <Bond>
0.268

> <Angle>
3.728

> <Pdih>
8.575

> <Idih>
0.000

> <Tether>
0.000

$$$$
VeraChem MOL file


 22 22  0  0  0  0  0  0  0  0999 V2000     
   20.8952   18.3770   21.8838 C   0  0  0  0  0  0  0  0  0  0  0  0
   21.2371   17.3365   21.7960 H   0  0  0  0  0  0  0  0  0  0  0  0
   21.2736   18.8763   20.9818 H   0  0  0  0  0  0  0  0  0  0  0  0
   21.5549   18.9908   23.1534 C   0  0  0  0  0  0  0  0  0  0  0  0
   22.1824   18.2160   23.6151 H   0  0  0  0  0  0  0  0  0  0  0  0
   22.2538   19.7886   22.8686 H   0  0  0  0  0  0  0  0  0  0  0  0
   20.5804   19.5173   24.2378 C   0  0  0  0  0  0  0  0  0  0  0  0
   21.1586   19.7383   25.1453 H   0  0  0  0  0  0  0  0  0  0  0  0
   19.8924   18.7171   24.5375 H   0  0  0  0  0  0  0  0  0  0  0  0
   19.7726   20.7920   23.8668 C   0  0  0  0  0  0  0  0  0  0  0  0
   18.8793   20.8292   24.5035 H   0  0  0  0  0  0  0  0  0  0  0  0
   20.3658   21.6724   24.1477 H   0  0  0  0  0  0  0  0  0  0  0  0
   19.3325   20.9767   22.3936 C   0  0  0  0  0  0  0  0  0  0  0  0
   18.5980   21.7947   22.3799 H   0  0  0  0  0  0  0  0  0  0  0  0
   18.6583   19.7553   21.7216 C   0  0  0  0  0  0  0  0  0  0  0  0
   17.6332   19.6701   22.1045 H   0  0  0  0  0  0  0  0  0  0  0  0
   18.5507   19.9834   20.6528 H   0  0  0  0  0  0  0  0  0  0  0  0
   19.3453   18.3684   21.8606 C   0  0  0  0  0  0  0  0  0  0  0  0
   18.9645   17.8541   22.7518 H   0  0  0  0  0  0  0  0  0  0  0  0
   19.0149   17.7440   21.0194 H   0  0  0  0  0  0  0  0  0  0  0  0
   20.4415   21.3968   21.6146 O   0  0  0  0  0  0  0  0  0  0  0  0
   21.0609   20.6408   21.6581 H   0  0  0  0  0  0  0  0  0  0  0  0
  1  2  1  0  0  0  0
  1  3  1  0  0  0  0
  1  4  1  0  0  0  0
  4  5  1  0  0  0  0
  4  6  1  0  0  0  0
  4  7  1  0  0  0  0
  7  8  1  0  0  0  0
  7  9  1  0  0  0  0
  7 10  1  0  0  0  0
 10 11  1  0  0  0  0
 10 12  1  0  0  0  0
 10 13  1  0  0  0  0
 13 14  1  0  0  0  0
 13 15  1  0  0  0  0
 15 16  1  0  0  0  0
 15 17  1  0  0  0  0
  1 18  1  0  0  0  0
 15 18  1  0  0  0  0
 18 19  1  0  0  0  0
 18 20  1  0  0  0  0
 13 21  1  0  0  0  0
 21 22  1  0  0  0  0
M  END
> <VConfSearch Rank>
136

> <Conf_Id>
98

> <Delta U+W>
0.930

> <U+W>
7.353

> <U>
8.455

> <W>
-1.102

> <W(PB)>
-3.101

> <W(SA)>
2.000

> <Valence>
15.601

> <Coulomb>
-10.573

> <VdW>
3.427

> <VdW6>
-11.360

> <VdW12>
14.787

> <Bond>
0.471

> <Angle>
5.445

> <Pdih>
9.685

> <Idih>
0.000

> <Tether>
0.000

$$$$
VeraChem MOL file


 22 22  0  0  0  0  0  0  0  0999 V2000     
   19.3552   18.0484   22.0971 C   0  0  0  0  0  0  0  0  0  0  0  0
   18.4031   18.3644   22.5426 H   0  0  0  0  0  0  0  0  0  0  0  0
   19.1373   17.0882   21.6100 H   0  0  0  0  0  0  0  0  0  0  0  0
   20.4022   17.8084   23.2144 C   0  0  0  0  0  0  0  0  0  0  0  0
   20.0015   17.0335   23.8821 H   0  0  0  0  0  0  0  0  0  0  0  0
   21.3150   17.3813   22.7773 H   0  0  0  0  0  0  0  0  0  0  0  0
   20.7795   19.0434   24.0786 C   0  0  0  0  0  0  0  0  0  0  0  0
   21.7589   19.4326   23.7716 H   0  0  0  0  0  0  0  0  0  0  0  0
   20.9214   18.7062   25.1144 H   0  0  0  0  0  0  0  0  0  0  0  0
   19.7392   20.1948   24.0689 C   0  0  0  0  0  0  0  0  0  0  0  0
   18.7502   19.7883   24.3142 H   0  0  0  0  0  0  0  0  0  0  0  0
   19.9750   20.8796   24.8946 H   0  0  0  0  0  0  0  0  0  0  0  0
   19.6425   21.0127   22.7477 C   0  0  0  0  0  0  0  0  0  0  0  0
   18.5778   21.1301   22.4992 H   0  0  0  0  0  0  0  0  0  0  0  0
   20.3608   20.4013   21.5187 C   0  0  0  0  0  0  0  0  0  0  0  0
   20.3252   21.1218   20.6913 H   0  0  0  0  0  0  0  0  0  0  0  0
   21.4273   20.2739   21.7402 H   0  0  0  0  0  0  0  0  0  0  0  0
   19.7763   19.0612   21.0065 C   0  0  0  0  0  0  0  0  0  0  0  0
   18.8992   19.2726   20.3796 H   0  0  0  0  0  0  0  0  0  0  0  0
   20.5143   18.5903   20.3430 H   0  0  0  0  0  0  0  0  0  0  0  0
   20.2044   22.3006   22.9729 O   0  0  0  0  0  0  0  0  0  0  0  0
   20.0790   22.8121   22.1465 H   0  0  0  0  0  0  0  0  0  0  0  0
  1  2  1  0  0  0  0
  1  3  1  0  0  0  0
  1  4  1  0  0  0  0
  4  5  1  0  0  0  0
  4  6  1  0  0  0  0
  4  7  1  0  0  0  0
  7  8  1  0  0  0  0
  7  9  1  0  0  0  0
  7 10  1  0  0  0  0
 10 11  1  0  0  0  0
 10 12  1  0  0  0  0
 10 13  1  0  0  0  0
 13 14  1  0  0  0  0
 13 15  1  0  0  0  0
 15 16  1  0  0  0  0
 15 17  1  0  0  0  0
  1 18  1  0  0  0  0
 15 18  1  0  0  0  0
 18 19  1  0  0  0  0
 18 20  1  0  0  0  0
 13 21  1  0  0  0  0
 21 22  1  0  0  0  0
M  END
> <VConfSearch Rank>
137

> <Conf_Id>
141

> <Delta U+W>
0.000

> <U+W>
6.423

> <U>
8.781

> <W>
-2.358

> <W(PB)>
-4.373

> <W(SA)>
2.015

> <Valence>
13.328

> <Coulomb>
-8.387

> <VdW>
3.840

> <VdW6>
-9.744

> <VdW12>
13.584

> <Bond>
0.436

> <Angle>
3.478

> <Pdih>
9.415

> <Idih>
0.000

> <Tether>
0.000

$$$$
VeraChem MOL file


 22 22  0  0  0  0  0  0  0  0999 V2000     
   20.0366   21.2482   23.2703 C   0  0  0  0  0  0  0  0  0  0  0  0
   19.5559   20.8941   24.1924 H   0  0  0  0  0  0  0  0  0  0  0  0
   20.2401   22.3167   23.4250 H   0  0  0  0  0  0  0  0  0  0  0  0
   19.0769   21.1229   22.0625 C   0  0  0  0  0  0  0  0  0  0  0  0
   18.2588   21.8451   22.1892 H   0  0  0  0  0  0  0  0  0  0  0  0
   19.6027   21.4255   21.1466 H   0  0  0  0  0  0  0  0  0  0  0  0
   18.4558   19.7222   21.8564 C   0  0  0  0  0  0  0  0  0  0  0  0
   17.8543   19.7462   20.9375 H   0  0  0  0  0  0  0  0  0  0  0  0
   17.7494   19.5127   22.6714 H   0  0  0  0  0  0  0  0  0  0  0  0
   19.4769   18.5634   21.7485 C   0  0  0  0  0  0  0  0  0  0  0  0
   18.9393   17.6807   21.3780 H   0  0  0  0  0  0  0  0  0  0  0  0
   20.2438   18.7917   20.9970 H   0  0  0  0  0  0  0  0  0  0  0  0
   20.1334   18.2186   23.1042 C   0  0  0  0  0  0  0  0  0  0  0  0
   19.3971   18.4024   23.8997 H   0  0  0  0  0  0  0  0  0  0  0  0
   21.4079   19.0320   23.4256 C   0  0  0  0  0  0  0  0  0  0  0  0
   21.5920   18.9466   24.5043 H   0  0  0  0  0  0  0  0  0  0  0  0
   22.2714   18.5632   22.9350 H   0  0  0  0  0  0  0  0  0  0  0  0
   21.3885   20.5327   23.0416 C   0  0  0  0  0  0  0  0  0  0  0  0
   22.1657   21.0429   23.6268 H   0  0  0  0  0  0  0  0  0  0  0  0
   21.6891   20.6471   21.9912 H   0  0  0  0  0  0  0  0  0  0  0  0
   20.4783   16.8387   23.1086 O   0  0  0  0  0  0  0  0  0  0  0  0
   19.6452   16.3390   22.9790 H   0  0  0  0  0  0  0  0  0  0  0  0
  1  2  1  0  0  0  0
  1  3  1  0  0  0  0
  1  4  1  0  0  0  0
  4  5  1  0  0  0  0
  4  6  1  0  0  0  0
  4  7  1  0  0  0  0
  7  8  1  0  0  0  0
  7  9  1  0  0  0  0
  7 10  1  0  0  0  0
 10 11  1  0  0  0  0
 10 12  1  0  0  0  0
 10 13  1  0  0  0  0
 13 14  1  0  0  0  0
 13 15  1  0  0  0  0
 15 16  1  0  0  0  0
 15 17  1  0  0  0  0
  1 18  1  0  0  0  0
 15 18  1  0  0  0  0
 18 19  1  0  0  0  0
 18 20  1  0  0  0  0
 13 21  1  0  0  0  0
 21 22  1  0  0  0  0
M  END
> <VConfSearch Rank>
138

> <Conf_Id>
144

> <Delta U+W>
-3.291

> <U+W>
3.132

> <U>
5.411

> <W>
-2.279

> <W(PB)>
-4.300

> <W(SA)>
2.021

> <Valence>
11.909

> <Coulomb>
-8.733

> <VdW>
2.236

> <VdW6>
-8.936

> <VdW12>
11.172

> <Bond>
0.223

> <Angle>
2.457

> <Pdih>
9.228

> <Idih>
0.000

> <Tether>
0.000

$$$$
VeraChem MOL file


 22 22  0  0  0  0  0  0  0  0999 V2000     
   20.1715   21.1647   23.2465 C   0  0  0  0  0  0  0  0  0  0  0  0
   20.0401   22.2185   23.5278 H   0  0  0  0  0  0  0  0  0  0  0  0
   21.1880   20.8908   23.5603 H   0  0  0  0  0  0  0  0  0  0  0  0
   20.0211   21.0572   21.7109 C   0  0  0  0  0  0  0  0  0  0  0  0
   18.9550   21.0111   21.4503 H   0  0  0  0  0  0  0  0  0  0  0  0
   20.3950   21.9825   21.2516 H   0  0  0  0  0  0  0  0  0  0  0  0
   20.7667   19.8671   21.0601 C   0  0  0  0  0  0  0  0  0  0  0  0
   21.8148   20.1505   20.8925 H   0  0  0  0  0  0  0  0  0  0  0  0
   20.3397   19.7003   20.0617 H   0  0  0  0  0  0  0  0  0  0  0  0
   20.7479   18.5326   21.8456 C   0  0  0  0  0  0  0  0  0  0  0  0
   21.0048   17.7268   21.1448 H   0  0  0  0  0  0  0  0  0  0  0  0
   21.5510   18.5434   22.5939 H   0  0  0  0  0  0  0  0  0  0  0  0
   19.4072   18.2042   22.5399 C   0  0  0  0  0  0  0  0  0  0  0  0
   18.5741   18.5764   21.9268 H   0  0  0  0  0  0  0  0  0  0  0  0
   19.3134   18.8041   23.9613 C   0  0  0  0  0  0  0  0  0  0  0  0
   18.4715   18.3337   24.4867 H   0  0  0  0  0  0  0  0  0  0  0  0
   20.2132   18.5383   24.5312 H   0  0  0  0  0  0  0  0  0  0  0  0
   19.1135   20.3374   24.0153 C   0  0  0  0  0  0  0  0  0  0  0  0
   18.1117   20.5873   23.6399 H   0  0  0  0  0  0  0  0  0  0  0  0
   19.1241   20.6478   25.0690 H   0  0  0  0  0  0  0  0  0  0  0  0
   19.2975   16.7917   22.6544 O   0  0  0  0  0  0  0  0  0  0  0  0
   20.0542   16.4991   23.2031 H   0  0  0  0  0  0  0  0  0  0  0  0
  1  2  1  0  0  0  0
  1  3  1  0  0  0  0
  1  4  1  0  0  0  0
  4  5  1  0  0  0  0
  4  6  1  0  0  0  0
  4  7  1  0  0  0  0
  7  8  1  0  0  0  0
  7  9  1  0  0  0  0
  7 10  1  0  0  0  0
 10 11  1  0  0  0  0
 10 12  1  0  0  0  0
 10 13  1  0  0  0  0
 13 14  1  0  0  0  0
 13 15  1  0  0  0  0
 15 16  1  0  0  0  0
 15 17  1  0  0  0  0
  1 18  1  0  0  0  0
 15 18  1  0  0  0  0
 18 19  1  0  0  0  0
 18 20  1  0  0  0  0
 13 21  1  0  0  0  0
 21 22  1  0  0  0  0
M  END
> <VConfSearch Rank>
139

> <Conf_Id>
76

> <Delta U+W>
-3.175

> <U+W>
3.248

> <U>
5.336

> <W>
-2.088

> <W(PB)>
-4.098

> <W(SA)>
2.010

> <Valence>
12.390

> <Coulomb>
-9.270

> <VdW>
2.216

> <VdW6>
-8.967

> <VdW12>
11.183

> <Bond>
0.218

> <Angle>
2.426

> <Pdih>
9.745

> <Idih>
0.000

> <Tether>
0.000

$$$$
VeraChem MOL file


 22 22  0  0  0  0  0  0  0  0999 V2000     
   21.0825   18.0038   22.4135 C   0  0  0  0  0  0  0  0  0  0  0  0
   22.1765   17.9096   22.4480 H   0  0  0  0  0  0  0  0  0  0  0  0
   20.7001   16.9845   22.2669 H   0  0  0  0  0  0  0  0  0  0  0  0
   20.7093   18.8617   21.1809 C   0  0  0  0  0  0  0  0  0  0  0  0
   21.4610   19.6504   21.0419 H   0  0  0  0  0  0  0  0  0  0  0  0
   20.7838   18.2247   20.2890 H   0  0  0  0  0  0  0  0  0  0  0  0
   19.3000   19.4967   21.2281 C   0  0  0  0  0  0  0  0  0  0  0  0
   18.5757   18.8134   21.6922 H   0  0  0  0  0  0  0  0  0  0  0  0
   18.9587   19.6466   20.1950 H   0  0  0  0  0  0  0  0  0  0  0  0
   19.2869   20.8763   21.9343 C   0  0  0  0  0  0  0  0  0  0  0  0
   20.0680   21.5122   21.4983 H   0  0  0  0  0  0  0  0  0  0  0  0
   18.3372   21.3776   21.7059 H   0  0  0  0  0  0  0  0  0  0  0  0
   19.4591   20.8591   23.4703 C   0  0  0  0  0  0  0  0  0  0  0  0
   19.6098   21.9021   23.7841 H   0  0  0  0  0  0  0  0  0  0  0  0
   20.6727   20.0473   23.9884 C   0  0  0  0  0  0  0  0  0  0  0  0
   21.5965   20.4286   23.5344 H   0  0  0  0  0  0  0  0  0  0  0  0
   20.7683   20.2449   25.0639 H   0  0  0  0  0  0  0  0  0  0  0  0
   20.5753   18.5131   23.7838 C   0  0  0  0  0  0  0  0  0  0  0  0
   21.1617   18.0140   24.5670 H   0  0  0  0  0  0  0  0  0  0  0  0
   19.5411   18.1775   23.9368 H   0  0  0  0  0  0  0  0  0  0  0  0
   18.2591   20.3838   24.0722 O   0  0  0  0  0  0  0  0  0  0  0  0
   18.4288   20.3398   25.0353 H   0  0  0  0  0  0  0  0  0  0  0  0
  1  2  1  0  0  0  0
  1  3  1  0  0  0  0
  1  4  1  0  0  0  0
  4  5  1  0  0  0  0
  4  6  1  0  0  0  0
  4  7  1  0  0  0  0
  7  8  1  0  0  0  0
  7  9  1  0  0  0  0
  7 10  1  0  0  0  0
 10 11  1  0  0  0  0
 10 12  1  0  0  0  0
 10 13  1  0  0  0  0
 13 14  1  0  0  0  0
 13 15  1  0  0  0  0
 15 16  1  0  0  0  0
 15 17  1  0  0  0  0
  1 18  1  0  0  0  0
 15 18  1  0  0  0  0
 18 19  1  0  0  0  0
 18 20  1  0  0  0  0
 13 21  1  0  0  0  0
 21 22  1  0  0  0  0
M  END
> <VConfSearch Rank>
140

> <Conf_Id>
95

> <Delta U+W>
-2.289

> <U+W>
4.134

> <U>
6.373

> <W>
-2.240

> <W(PB)>
-4.254

> <W(SA)>
2.015

> <Valence>
12.093

> <Coulomb>
-8.058

> <VdW>
2.339

> <VdW6>
-9.683

> <VdW12>
12.022

> <Bond>
0.268

> <Angle>
3.005

> <Pdih>
8.820

> <Idih>
0.000

> <Tether>
0.000

$$$$
VeraChem MOL file


 22 22  0  0  0  0  0  0  0  0999 V2000     
   19.9657   19.8930   24.5982 C   0  0  0  0  0  0  0  0  0  0  0  0
   19.2486   19.4636   25.3111 H   0  0  0  0  0  0  0  0  0  0  0  0
   20.6671   20.4853   25.2015 H   0  0  0  0  0  0  0  0  0  0  0  0
   19.1956   20.8423   23.6495 C   0  0  0  0  0  0  0  0  0  0  0  0
   18.1993   20.4270   23.4459 H   0  0  0  0  0  0  0  0  0  0  0  0
   19.0165   21.7849   24.1846 H   0  0  0  0  0  0  0  0  0  0  0  0
   19.9076   21.1516   22.3120 C   0  0  0  0  0  0  0  0  0  0  0  0
   20.9926   21.2452   22.4566 H   0  0  0  0  0  0  0  0  0  0  0  0
   19.5610   22.1330   21.9610 H   0  0  0  0  0  0  0  0  0  0  0  0
   19.5829   20.1136   21.2082 C   0  0  0  0  0  0  0  0  0  0  0  0
   18.4949   19.9810   21.1490 H   0  0  0  0  0  0  0  0  0  0  0  0
   19.8786   20.5303   20.2367 H   0  0  0  0  0  0  0  0  0  0  0  0
   20.2426   18.7241   21.3634 C   0  0  0  0  0  0  0  0  0  0  0  0
   19.7789   18.0669   20.6136 H   0  0  0  0  0  0  0  0  0  0  0  0
   20.0412   18.0508   22.7441 C   0  0  0  0  0  0  0  0  0  0  0  0
   18.9697   17.9511   22.9595 H   0  0  0  0  0  0  0  0  0  0  0  0
   20.4276   17.0265   22.6648 H   0  0  0  0  0  0  0  0  0  0  0  0
   20.7609   18.7469   23.9286 C   0  0  0  0  0  0  0  0  0  0  0  0
   20.9813   17.9949   24.6981 H   0  0  0  0  0  0  0  0  0  0  0  0
   21.7395   19.1225   23.6019 H   0  0  0  0  0  0  0  0  0  0  0  0
   21.6320   18.8252   21.0662 O   0  0  0  0  0  0  0  0  0  0  0  0
   21.7022   19.2701   20.1971 H   0  0  0  0  0  0  0  0  0  0  0  0
  1  2  1  0  0  0  0
  1  3  1  0  0  0  0
  1  4  1  0  0  0  0
  4  5  1  0  0  0  0
  4  6  1  0  0  0  0
  4  7  1  0  0  0  0
  7  8  1  0  0  0  0
  7  9  1  0  0  0  0
  7 10  1  0  0  0  0
 10 11  1  0  0  0  0
 10 12  1  0  0  0  0
 10 13  1  0  0  0  0
 13 14  1  0  0  0  0
 13 15  1  0  0  0  0
 15 16  1  0  0  0  0
 15 17  1  0  0  0  0
  1 18  1  0  0  0  0
 15 18  1  0  0  0  0
 18 19  1  0  0  0  0
 18 20  1  0  0  0  0
 13 21  1  0  0  0  0
 21 22  1  0  0  0  0
M  END
> <VConfSearch Rank>
141

> <Conf_Id>
41

> <Delta U+W>
-2.114

> <U+W>
4.310

> <U>
6.598

> <W>
-2.289

> <W(PB)>
-4.294

> <W(SA)>
2.005

> <Valence>
12.082

> <Coulomb>
-7.801

> <VdW>
2.317

> <VdW6>
-9.658

> <VdW12>
11.975

> <Bond>
0.267

> <Angle>
3.051

> <Pdih>
8.764

> <Idih>
0.000

> <Tether>
0.000

$$$$
VeraChem MOL file


 22 22  0  0  0  0  0  0  0  0999 V2000     
   21.3522   19.9547   21.7158 C   0  0  0  0  0  0  0  0  0  0  0  0
   22.1612   20.4624   21.1732 H   0  0  0  0  0  0  0  0  0  0  0  0
   21.5386   18.8772   21.6091 H   0  0  0  0  0  0  0  0  0  0  0  0
   20.0150   20.3467   21.0481 C   0  0  0  0  0  0  0  0  0  0  0  0
   19.8174   21.4135   21.2196 H   0  0  0  0  0  0  0  0  0  0  0  0
   20.1186   20.2306   19.9607 H   0  0  0  0  0  0  0  0  0  0  0  0
   18.7971   19.5165   21.5091 C   0  0  0  0  0  0  0  0  0  0  0  0
   18.9006   18.4845   21.1483 H   0  0  0  0  0  0  0  0  0  0  0  0
   17.9058   19.9155   21.0065 H   0  0  0  0  0  0  0  0  0  0  0  0
   18.5372   19.5203   23.0400 C   0  0  0  0  0  0  0  0  0  0  0  0
   18.5107   20.5513   23.4150 H   0  0  0  0  0  0  0  0  0  0  0  0
   17.5296   19.1184   23.2067 H   0  0  0  0  0  0  0  0  0  0  0  0
   19.5138   18.6738   23.8965 C   0  0  0  0  0  0  0  0  0  0  0  0
   19.0261   18.5183   24.8697 H   0  0  0  0  0  0  0  0  0  0  0  0
   20.8867   19.3272   24.2020 C   0  0  0  0  0  0  0  0  0  0  0  0
   20.8199   19.8121   25.1846 H   0  0  0  0  0  0  0  0  0  0  0  0
   21.6402   18.5376   24.3212 H   0  0  0  0  0  0  0  0  0  0  0  0
   21.4250   20.3781   23.1995 C   0  0  0  0  0  0  0  0  0  0  0  0
   20.8987   21.3318   23.3403 H   0  0  0  0  0  0  0  0  0  0  0  0
   22.4738   20.5802   23.4560 H   0  0  0  0  0  0  0  0  0  0  0  0
   19.7134   17.3927   23.3050 O   0  0  0  0  0  0  0  0  0  0  0  0
   20.3022   16.8925   23.9058 H   0  0  0  0  0  0  0  0  0  0  0  0
  1  2  1  0  0  0  0
  1  3  1  0  0  0  0
  1  4  1  0  0  0  0
  4  5  1  0  0  0  0
  4  6  1  0  0  0  0
  4  7  1  0  0  0  0
  7  8  1  0  0  0  0
  7  9  1  0  0  0  0
  7 10  1  0  0  0  0
 10 11  1  0  0  0  0
 10 12  1  0  0  0  0
 10 13  1  0  0  0  0
 13 14  1  0  0  0  0
 13 15  1  0  0  0  0
 15 16  1  0  0  0  0
 15 17  1  0  0  0  0
  1 18  1  0  0  0  0
 15 18  1  0  0  0  0
 18 19  1  0  0  0  0
 18 20  1  0  0  0  0
 13 21  1  0  0  0  0
 21 22  1  0  0  0  0
M  END
> <VConfSearch Rank>
142

> <Conf_Id>
104

> <Delta U+W>
-1.172

> <U+W>
5.252

> <U>
7.482

> <W>
-2.230

> <W(PB)>
-4.220

> <W(SA)>
1.990

> <Valence>
12.309

> <Coulomb>
-7.084

> <VdW>
2.258

> <VdW6>
-9.770

> <VdW12>
12.028

> <Bond>
0.284

> <Angle>
3.491

> <Pdih>
8.535

> <Idih>
0.000

> <Tether>
0.000

$$$$
VeraChem MOL file


 22 22  0  0  0  0  0  0  0  0999 V2000     
   20.3201   21.2125   22.6572 C   0  0  0  0  0  0  0  0  0  0  0  0
   20.0138   21.3325   23.7052 H   0  0  0  0  0  0  0  0  0  0  0  0
   20.5616   22.2213   22.2956 H   0  0  0  0  0  0  0  0  0  0  0  0
   19.1540   20.6695   21.7999 C   0  0  0  0  0  0  0  0  0  0  0  0
   18.4762   21.5012   21.5634 H   0  0  0  0  0  0  0  0  0  0  0  0
   19.5418   20.3345   20.8290 H   0  0  0  0  0  0  0  0  0  0  0  0
   18.3105   19.5434   22.4496 C   0  0  0  0  0  0  0  0  0  0  0  0
   17.8486   18.9490   21.6492 H   0  0  0  0  0  0  0  0  0  0  0  0
   17.4726   20.0048   22.9900 H   0  0  0  0  0  0  0  0  0  0  0  0
   19.0363   18.5906   23.4378 C   0  0  0  0  0  0  0  0  0  0  0  0
   19.1388   19.0913   24.4092 H   0  0  0  0  0  0  0  0  0  0  0  0
   18.3788   17.7317   23.6249 H   0  0  0  0  0  0  0  0  0  0  0  0
   20.4202   18.0516   23.0086 C   0  0  0  0  0  0  0  0  0  0  0  0
   20.6053   17.1321   23.5822 H   0  0  0  0  0  0  0  0  0  0  0  0
   21.5731   19.0254   23.3414 C   0  0  0  0  0  0  0  0  0  0  0  0
   21.5439   19.2510   24.4153 H   0  0  0  0  0  0  0  0  0  0  0  0
   22.5230   18.5005   23.1755 H   0  0  0  0  0  0  0  0  0  0  0  0
   21.6044   20.3563   22.5498 C   0  0  0  0  0  0  0  0  0  0  0  0
   22.4479   20.9513   22.9255 H   0  0  0  0  0  0  0  0  0  0  0  0
   21.8317   20.1563   21.4939 H   0  0  0  0  0  0  0  0  0  0  0  0
   20.4267   17.7407   21.6238 O   0  0  0  0  0  0  0  0  0  0  0  0
   20.1745   18.5799   21.1898 H   0  0  0  0  0  0  0  0  0  0  0  0
  1  2  1  0  0  0  0
  1  3  1  0  0  0  0
  1  4  1  0  0  0  0
  4  5  1  0  0  0  0
  4  6  1  0  0  0  0
  4  7  1  0  0  0  0
  7  8  1  0  0  0  0
  7  9  1  0  0  0  0
  7 10  1  0  0  0  0
 10 11  1  0  0  0  0
 10 12  1  0  0  0  0
 10 13  1  0  0  0  0
 13 14  1  0  0  0  0
 13 15  1  0  0  0  0
 15 16  1  0  0  0  0
 15 17  1  0  0  0  0
  1 18  1  0  0  0  0
 15 18  1  0  0  0  0
 18 19  1  0  0  0  0
 18 20  1  0  0  0  0
 13 21  1  0  0  0  0
 21 22  1  0  0  0  0
M  END
> <VConfSearch Rank>
143

> <Conf_Id>
99

> <Delta U+W>
-3.852

> <U+W>
2.572

> <U>
3.922

> <W>
-1.350

> <W(PB)>
-3.345

> <W(SA)>
1.995

> <Valence>
12.571

> <Coulomb>
-10.581

> <VdW>
1.932

> <VdW6>
-10.483

> <VdW12>
12.415

> <Bond>
0.268

> <Angle>
3.728

> <Pdih>
8.575

> <Idih>
0.000

> <Tether>
0.000

$$$$
VeraChem MOL file


 22 22  0  0  0  0  0  0  0  0999 V2000     
   19.6103   19.6301   21.0762 C   0  0  0  0  0  0  0  0  0  0  0  0
   18.8422   19.6464   20.2907 H   0  0  0  0  0  0  0  0  0  0  0  0
   20.5665   19.6746   20.5380 H   0  0  0  0  0  0  0  0  0  0  0  0
   19.4858   18.2779   21.8377 C   0  0  0  0  0  0  0  0  0  0  0  0
   18.6639   17.7088   21.3817 H   0  0  0  0  0  0  0  0  0  0  0  0
   20.3816   17.6652   21.6698 H   0  0  0  0  0  0  0  0  0  0  0  0
   19.2035   18.3786   23.3586 C   0  0  0  0  0  0  0  0  0  0  0  0
   18.9477   17.3771   23.7305 H   0  0  0  0  0  0  0  0  0  0  0  0
   18.2987   18.9752   23.5286 H   0  0  0  0  0  0  0  0  0  0  0  0
   20.3655   18.9275   24.2323 C   0  0  0  0  0  0  0  0  0  0  0  0
   19.9389   19.3142   25.1667 H   0  0  0  0  0  0  0  0  0  0  0  0
   21.0026   18.0845   24.5313 H   0  0  0  0  0  0  0  0  0  0  0  0
   21.2858   20.0157   23.6265 C   0  0  0  0  0  0  0  0  0  0  0  0
   21.8817   20.4268   24.4540 H   0  0  0  0  0  0  0  0  0  0  0  0
   20.5762   21.2119   22.9456 C   0  0  0  0  0  0  0  0  0  0  0  0
   20.1747   21.8687   23.7280 H   0  0  0  0  0  0  0  0  0  0  0  0
   21.3458   21.8059   22.4349 H   0  0  0  0  0  0  0  0  0  0  0  0
   19.4368   20.9103   21.9329 C   0  0  0  0  0  0  0  0  0  0  0  0
   18.4740   20.8770   22.4577 H   0  0  0  0  0  0  0  0  0  0  0  0
   19.3524   21.7713   21.2559 H   0  0  0  0  0  0  0  0  0  0  0  0
   22.1930   19.4180   22.7138 O   0  0  0  0  0  0  0  0  0  0  0  0
   21.6182   19.0705   22.0026 H   0  0  0  0  0  0  0  0  0  0  0  0
  1  2  1  0  0  0  0
  1  3  1  0  0  0  0
  1  4  1  0  0  0  0
  4  5  1  0  0  0  0
  4  6  1  0  0  0  0
  4  7  1  0  0  0  0
  7  8  1  0  0  0  0
  7  9  1  0  0  0  0
  7 10  1  0  0  0  0
 10 11  1  0  0  0  0
 10 12  1  0  0  0  0
 10 13  1  0  0  0  0
 13 14  1  0  0  0  0
 13 15  1  0  0  0  0
 15 16  1  0  0  0  0
 15 17  1  0  0  0  0
  1 18  1  0  0  0  0
 15 18  1  0  0  0  0
 18 19  1  0  0  0  0
 18 20  1  0  0  0  0
 13 21  1  0  0  0  0
 21 22  1  0  0  0  0
M  END
> <VConfSearch Rank>
144

> <Conf_Id>
98

> <Delta U+W>
0.930

> <U+W>
7.353

> <U>
8.455

> <W>
-1.102

> <W(PB)>
-3.101

> <W(SA)>
2.000

> <Valence>
15.601

> <Coulomb>
-10.573

> <VdW>
3.427

> <VdW6>
-11.360

> <VdW12>
14.787

> <Bond>
0.471

> <Angle>
5.445

> <Pdih>
9.685

> <Idih>
0.000

> <Tether>
0.000

$$$$
VeraChem MOL file


 22 22  0  0  0  0  0  0  0  0999 V2000     
   19.1715   19.2760   21.1803 C   0  0  0  0  0  0  0  0  0  0  0  0
   19.1043   18.2178   21.4641 H   0  0  0  0  0  0  0  0  0  0  0  0
   18.6172   19.3533   20.2350 H   0  0  0  0  0  0  0  0  0  0  0  0
   20.6511   19.6548   20.9169 C   0  0  0  0  0  0  0  0  0  0  0  0
   21.0205   19.0051   20.1117 H   0  0  0  0  0  0  0  0  0  0  0  0
   20.7038   20.6781   20.5210 H   0  0  0  0  0  0  0  0  0  0  0  0
   21.6189   19.5245   22.1257 C   0  0  0  0  0  0  0  0  0  0  0  0
   21.8370   20.5166   22.5418 H   0  0  0  0  0  0  0  0  0  0  0  0
   22.5842   19.1557   21.7533 H   0  0  0  0  0  0  0  0  0  0  0  0
   21.1312   18.5840   23.2594 C   0  0  0  0  0  0  0  0  0  0  0  0
   20.8542   17.6140   22.8281 H   0  0  0  0  0  0  0  0  0  0  0  0
   21.9833   18.3665   23.9175 H   0  0  0  0  0  0  0  0  0  0  0  0
   19.9501   19.1155   24.1232 C   0  0  0  0  0  0  0  0  0  0  0  0
   19.2175   18.3029   24.2322 H   0  0  0  0  0  0  0  0  0  0  0  0
   19.2123   20.3599   23.5688 C   0  0  0  0  0  0  0  0  0  0  0  0
   18.4897   20.7080   24.3183 H   0  0  0  0  0  0  0  0  0  0  0  0
   19.9219   21.1877   23.4509 H   0  0  0  0  0  0  0  0  0  0  0  0
   18.4484   20.1414   22.2389 C   0  0  0  0  0  0  0  0  0  0  0  0
   17.4791   19.6735   22.4585 H   0  0  0  0  0  0  0  0  0  0  0  0
   18.2173   21.1236   21.8046 H   0  0  0  0  0  0  0  0  0  0  0  0
   20.4510   19.4555   25.4111 O   0  0  0  0  0  0  0  0  0  0  0  0
   19.6807   19.7313   25.9502 H   0  0  0  0  0  0  0  0  0  0  0  0
  1  2  1  0  0  0  0
  1  3  1  0  0  0  0
  1  4  1  0  0  0  0
  4  5  1  0  0  0  0
  4  6  1  0  0  0  0
  4  7  1  0  0  0  0
  7  8  1  0  0  0  0
  7  9  1  0  0  0  0
  7 10  1  0  0  0  0
 10 11  1  0  0  0  0
 10 12  1  0  0  0  0
 10 13  1  0  0  0  0
 13 14  1  0  0  0  0
 13 15  1  0  0  0  0
 15 16  1  0  0  0  0
 15 17  1  0  0  0  0
  1 18  1  0  0  0  0
 15 18  1  0  0  0  0
 18 19  1  0  0  0  0
 18 20  1  0  0  0  0
 13 21  1  0  0  0  0
 21 22  1  0  0  0  0
M  END
> <VConfSearch Rank>
145

> <Conf_Id>
141

> <Delta U+W>
0.000

> <U+W>
6.423

> <U>
8.781

> <W>
-2.358

> <W(PB)>
-4.373

> <W(SA)>
2.015

> <Valence>
13.328

> <Coulomb>
-8.387

> <VdW>
3.840

> <VdW6>
-9.744

> <VdW12>
13.584

> <Bond>
0.436

> <Angle>
3.478

> <Pdih>
9.415

> <Idih>
0.000

> <Tether>
0.000

$$$$
VeraChem MOL file


 22 22  0  0  0  0  0  0  0  0999 V2000     
   19.6564   20.7217   23.9688 C   0  0  0  0  0  0  0  0  0  0  0  0
   20.7115   21.0261   23.9437 H   0  0  0  0  0  0  0  0  0  0  0  0
   19.1763   21.3527   24.7292 H   0  0  0  0  0  0  0  0  0  0  0  0
   19.5158   19.2490   24.4239 C   0  0  0  0  0  0  0  0  0  0  0  0
   19.8017   19.1810   25.4825 H   0  0  0  0  0  0  0  0  0  0  0  0
   18.4585   18.9539   24.3809 H   0  0  0  0  0  0  0  0  0  0  0  0
   20.3639   18.2295   23.6291 C   0  0  0  0  0  0  0  0  0  0  0  0
   20.1260   17.2232   24.0000 H   0  0  0  0  0  0  0  0  0  0  0  0
   21.4279   18.3872   23.8524 H   0  0  0  0  0  0  0  0  0  0  0  0
   20.1496   18.2546   22.0959 C   0  0  0  0  0  0  0  0  0  0  0  0
   20.6173   17.3523   21.6806 H   0  0  0  0  0  0  0  0  0  0  0  0
   19.0814   18.1843   21.8531 H   0  0  0  0  0  0  0  0  0  0  0  0
   20.7762   19.4982   21.4263 C   0  0  0  0  0  0  0  0  0  0  0  0
   21.6789   19.7745   21.9899 H   0  0  0  0  0  0  0  0  0  0  0  0
   19.8463   20.7314   21.3650 C   0  0  0  0  0  0  0  0  0  0  0  0
   20.4754   21.6117   21.1802 H   0  0  0  0  0  0  0  0  0  0  0  0
   19.1856   20.6453   20.4920 H   0  0  0  0  0  0  0  0  0  0  0  0
   18.9679   21.0007   22.6123 C   0  0  0  0  0  0  0  0  0  0  0  0
   18.6502   22.0519   22.5831 H   0  0  0  0  0  0  0  0  0  0  0  0
   18.0429   20.4121   22.5444 H   0  0  0  0  0  0  0  0  0  0  0  0
   21.1512   19.1624   20.0959 O   0  0  0  0  0  0  0  0  0  0  0  0
   21.7983   18.4291   20.1616 H   0  0  0  0  0  0  0  0  0  0  0  0
  1  2  1  0  0  0  0
  1  3  1  0  0  0  0
  1  4  1  0  0  0  0
  4  5  1  0  0  0  0
  4  6  1  0  0  0  0
  4  7  1  0  0  0  0
  7  8  1  0  0  0  0
  7  9  1  0  0  0  0
  7 10  1  0  0  0  0
 10 11  1  0  0  0  0
 10 12  1  0  0  0  0
 10 13  1  0  0  0  0
 13 14  1  0  0  0  0
 13 15  1  0  0  0  0
 15 16  1  0  0  0  0
 15 17  1  0  0  0  0
  1 18  1  0  0  0  0
 15 18  1  0  0  0  0
 18 19  1  0  0  0  0
 18 20  1  0  0  0  0
 13 21  1  0  0  0  0
 21 22  1  0  0  0  0
M  END
> <VConfSearch Rank>
146

> <Conf_Id>
144

> <Delta U+W>
-3.291

> <U+W>
3.132

> <U>
5.411

> <W>
-2.279

> <W(PB)>
-4.300

> <W(SA)>
2.021

> <Valence>
11.909

> <Coulomb>
-8.733

> <VdW>
2.236

> <VdW6>
-8.936

> <VdW12>
11.172

> <Bond>
0.223

> <Angle>
2.457

> <Pdih>
9.228

> <Idih>
0.000

> <Tether>
0.000

$$$$
VeraChem MOL file


 22 22  0  0  0  0  0  0  0  0999 V2000     
   19.2283   20.9862   23.3188 C   0  0  0  0  0  0  0  0  0  0  0  0
   18.8066   21.7439   23.9933 H   0  0  0  0  0  0  0  0  0  0  0  0
   19.1982   21.4249   22.3122 H   0  0  0  0  0  0  0  0  0  0  0  0
   18.3355   19.7257   23.3975 C   0  0  0  0  0  0  0  0  0  0  0  0
   18.6221   19.1289   24.2741 H   0  0  0  0  0  0  0  0  0  0  0  0
   17.2978   20.0362   23.5812 H   0  0  0  0  0  0  0  0  0  0  0  0
   18.3489   18.8319   22.1338 C   0  0  0  0  0  0  0  0  0  0  0  0
   17.6359   19.2364   21.4024 H   0  0  0  0  0  0  0  0  0  0  0  0
   17.9623   17.8416   22.4109 H   0  0  0  0  0  0  0  0  0  0  0  0
   19.7170   18.6597   21.4289 C   0  0  0  0  0  0  0  0  0  0  0  0
   19.6533   17.7728   20.7842 H   0  0  0  0  0  0  0  0  0  0  0  0
   19.8832   19.5081   20.7525 H   0  0  0  0  0  0  0  0  0  0  0  0
   20.9268   18.5201   22.3800 C   0  0  0  0  0  0  0  0  0  0  0  0
   20.6220   17.9780   23.2864 H   0  0  0  0  0  0  0  0  0  0  0  0
   21.5331   19.8867   22.7721 C   0  0  0  0  0  0  0  0  0  0  0  0
   22.5181   19.7168   23.2271 H   0  0  0  0  0  0  0  0  0  0  0  0
   21.7154   20.4799   21.8667 H   0  0  0  0  0  0  0  0  0  0  0  0
   20.6868   20.7207   23.7631 C   0  0  0  0  0  0  0  0  0  0  0  0
   20.6851   20.2277   24.7448 H   0  0  0  0  0  0  0  0  0  0  0  0
   21.1882   21.6863   23.9142 H   0  0  0  0  0  0  0  0  0  0  0  0
   21.9344   17.7707   21.7140 O   0  0  0  0  0  0  0  0  0  0  0  0
   22.1772   18.2826   20.9151 H   0  0  0  0  0  0  0  0  0  0  0  0
  1  2  1  0  0  0  0
  1  3  1  0  0  0  0
  1  4  1  0  0  0  0
  4  5  1  0  0  0  0
  4  6  1  0  0  0  0
  4  7  1  0  0  0  0
  7  8  1  0  0  0  0
  7  9  1  0  0  0  0
  7 10  1  0  0  0  0
 10 11  1  0  0  0  0
 10 12  1  0  0  0  0
 10 13  1  0  0  0  0
 13 14  1  0  0  0  0
 13 15  1  0  0  0  0
 15 16  1  0  0  0  0
 15 17  1  0  0  0  0
  1 18  1  0  0  0  0
 15 18  1  0  0  0  0
 18 19  1  0  0  0  0
 18 20  1  0  0  0  0
 13 21  1  0  0  0  0
 21 22  1  0  0  0  0
M  END
> <VConfSearch Rank>
147

> <Conf_Id>
76

> <Delta U+W>
-3.175

> <U+W>
3.248

> <U>
5.336

> <W>
-2.088

> <W(PB)>
-4.098

> <W(SA)>
2.010

> <Valence>
12.390

> <Coulomb>
-9.270

> <VdW>
2.216

> <VdW6>
-8.967

> <VdW12>
11.183

> <Bond>
0.218

> <Angle>
2.426

> <Pdih>
9.745

> <Idih>
0.000

> <Tether>
0.000

$$$$
VeraChem MOL file


 22 22  0  0  0  0  0  0  0  0999 V2000     
   18.4038   19.1590   21.9219 C   0  0  0  0  0  0  0  0  0  0  0  0
   18.2155   18.7219   20.9319 H   0  0  0  0  0  0  0  0  0  0  0  0
   17.4202   19.2386   22.4046 H   0  0  0  0  0  0  0  0  0  0  0  0
   18.9805   20.5810   21.7214 C   0  0  0  0  0  0  0  0  0  0  0  0
   19.6386   20.5890   20.8419 H   0  0  0  0  0  0  0  0  0  0  0  0
   18.1480   21.2527   21.4713 H   0  0  0  0  0  0  0  0  0  0  0  0
   19.7415   21.1561   22.9386 C   0  0  0  0  0  0  0  0  0  0  0  0
   19.2591   20.8601   23.8801 H   0  0  0  0  0  0  0  0  0  0  0  0
   19.6772   22.2516   22.8945 H   0  0  0  0  0  0  0  0  0  0  0  0
   21.2429   20.7715   22.9440 C   0  0  0  0  0  0  0  0  0  0  0  0
   21.6806   21.0127   21.9669 H   0  0  0  0  0  0  0  0  0  0  0  0
   21.7657   21.4112   23.6671 H   0  0  0  0  0  0  0  0  0  0  0  0
   21.5699   19.3001   23.2862 C   0  0  0  0  0  0  0  0  0  0  0  0
   22.6379   19.1539   23.0693 H   0  0  0  0  0  0  0  0  0  0  0  0
   20.7893   18.2432   22.4649 C   0  0  0  0  0  0  0  0  0  0  0  0
   20.9627   18.4028   21.3929 H   0  0  0  0  0  0  0  0  0  0  0  0
   21.2234   17.2610   22.6919 H   0  0  0  0  0  0  0  0  0  0  0  0
   19.2666   18.1787   22.7519 C   0  0  0  0  0  0  0  0  0  0  0  0
   18.9110   17.1600   22.5466 H   0  0  0  0  0  0  0  0  0  0  0  0
   19.0774   18.3426   23.8209 H   0  0  0  0  0  0  0  0  0  0  0  0
   21.3667   19.0854   24.6792 O   0  0  0  0  0  0  0  0  0  0  0  0
   21.5336   18.1346   24.8421 H   0  0  0  0  0  0  0  0  0  0  0  0
  1  2  1  0  0  0  0
  1  3  1  0  0  0  0
  1  4  1  0  0  0  0
  4  5  1  0  0  0  0
  4  6  1  0  0  0  0
  4  7  1  0  0  0  0
  7  8  1  0  0  0  0
  7  9  1  0  0  0  0
  7 10  1  0  0  0  0
 10 11  1  0  0  0  0
 10 12  1  0  0  0  0
 10 13  1  0  0  0  0
 13 14  1  0  0  0  0
 13 15  1  0  0  0  0
 15 16  1  0  0  0  0
 15 17  1  0  0  0  0
  1 18  1  0  0  0  0
 15 18  1  0  0  0  0
 18 19  1  0  0  0  0
 18 20  1  0  0  0  0
 13 21  1  0  0  0  0
 21 22  1  0  0  0  0
M  END
> <VConfSearch Rank>
148

> <Conf_Id>
95

> <Delta U+W>
-2.289

> <U+W>
4.134

> <U>
6.373

> <W>
-2.240

> <W(PB)>
-4.254

> <W(SA)>
2.015

> <Valence>
12.093

> <Coulomb>
-8.058

> <VdW>
2.339

> <VdW6>
-9.683

> <VdW12>
12.022

> <Bond>
0.268

> <Angle>
3.005

> <Pdih>
8.820

> <Idih>
0.000

> <Tether>
0.000

$$$$
VeraChem MOL file


 22 22  0  0  0  0  0  0  0  0999 V2000     
   19.7327   18.2659   24.0103 C   0  0  0  0  0  0  0  0  0  0  0  0
   18.8892   18.1793   24.7086 H   0  0  0  0  0  0  0  0  0  0  0  0
   20.3552   17.3774   24.1834 H   0  0  0  0  0  0  0  0  0  0  0  0
   20.5452   19.5278   24.3869 C   0  0  0  0  0  0  0  0  0  0  0  0
   19.8601   20.3159   24.7275 H   0  0  0  0  0  0  0  0  0  0  0  0
   21.1673   19.2832   25.2586 H   0  0  0  0  0  0  0  0  0  0  0  0
   21.4511   20.0834   23.2634 C   0  0  0  0  0  0  0  0  0  0  0  0
   21.9004   19.2675   22.6810 H   0  0  0  0  0  0  0  0  0  0  0  0
   22.2871   20.6185   23.7338 H   0  0  0  0  0  0  0  0  0  0  0  0
   20.7113   21.0828   22.3386 C   0  0  0  0  0  0  0  0  0  0  0  0
   20.2031   21.8346   22.9562 H   0  0  0  0  0  0  0  0  0  0  0  0
   21.4567   21.6401   21.7565 H   0  0  0  0  0  0  0  0  0  0  0  0
   19.6843   20.4723   21.3576 C   0  0  0  0  0  0  0  0  0  0  0  0
   19.1333   21.3126   20.9110 H   0  0  0  0  0  0  0  0  0  0  0  0
   18.6350   19.5334   22.0039 C   0  0  0  0  0  0  0  0  0  0  0  0
   18.0870   20.0687   22.7898 H   0  0  0  0  0  0  0  0  0  0  0  0
   17.8935   19.2949   21.2306 H   0  0  0  0  0  0  0  0  0  0  0  0
   19.1974   18.1993   22.5600 C   0  0  0  0  0  0  0  0  0  0  0  0
   18.4032   17.4414   22.5281 H   0  0  0  0  0  0  0  0  0  0  0  0
   19.9857   17.8209   21.8959 H   0  0  0  0  0  0  0  0  0  0  0  0
   20.3748   19.7904   20.3149 O   0  0  0  0  0  0  0  0  0  0  0  0
   21.0329   20.4194   19.9550 H   0  0  0  0  0  0  0  0  0  0  0  0
  1  2  1  0  0  0  0
  1  3  1  0  0  0  0
  1  4  1  0  0  0  0
  4  5  1  0  0  0  0
  4  6  1  0  0  0  0
  4  7  1  0  0  0  0
  7  8  1  0  0  0  0
  7  9  1  0  0  0  0
  7 10  1  0  0  0  0
 10 11  1  0  0  0  0
 10 12  1  0  0  0  0
 10 13  1  0  0  0  0
 13 14  1  0  0  0  0
 13 15  1  0  0  0  0
 15 16  1  0  0  0  0
 15 17  1  0  0  0  0
  1 18  1  0  0  0  0
 15 18  1  0  0  0  0
 18 19  1  0  0  0  0
 18 20  1  0  0  0  0
 13 21  1  0  0  0  0
 21 22  1  0  0  0  0
M  END
> <VConfSearch Rank>
149

> <Conf_Id>
41

> <Delta U+W>
-2.114

> <U+W>
4.310

> <U>
6.598

> <W>
-2.289

> <W(PB)>
-4.294

> <W(SA)>
2.005

> <Valence>
12.082

> <Coulomb>
-7.801

> <VdW>
2.317

> <VdW6>
-9.658

> <VdW12>
11.975

> <Bond>
0.267

> <Angle>
3.051

> <Pdih>
8.764

> <Idih>
0.000

> <Tether>
0.000

$$$$
VeraChem MOL file


 22 22  0  0  0  0  0  0  0  0999 V2000     
   19.6598   20.8093   21.7257 C   0  0  0  0  0  0  0  0  0  0  0  0
   19.1778   21.4917   21.0125 H   0  0  0  0  0  0  0  0  0  0  0  0
   20.3279   21.4279   22.3405 H   0  0  0  0  0  0  0  0  0  0  0  0
   20.4679   19.7708   20.9158 C   0  0  0  0  0  0  0  0  0  0  0  0
   19.7786   19.1232   20.3572 H   0  0  0  0  0  0  0  0  0  0  0  0
   21.0623   20.3013   20.1596 H   0  0  0  0  0  0  0  0  0  0  0  0
   21.4246   18.8994   21.7587 C   0  0  0  0  0  0  0  0  0  0  0  0
   22.2410   19.5231   22.1465 H   0  0  0  0  0  0  0  0  0  0  0  0
   21.9026   18.1743   21.0865 H   0  0  0  0  0  0  0  0  0  0  0  0
   20.7542   18.1189   22.9217 C   0  0  0  0  0  0  0  0  0  0  0  0
   19.8898   17.5554   22.5482 H   0  0  0  0  0  0  0  0  0  0  0  0
   21.4706   17.3647   23.2719 H   0  0  0  0  0  0  0  0  0  0  0  0
   20.3395   18.9621   24.1550 C   0  0  0  0  0  0  0  0  0  0  0  0
   20.1901   18.2555   24.9843 H   0  0  0  0  0  0  0  0  0  0  0  0
   19.0127   19.7534   24.0187 C   0  0  0  0  0  0  0  0  0  0  0  0
   18.2103   19.1477   24.4596 H   0  0  0  0  0  0  0  0  0  0  0  0
   19.0685   20.6554   24.6422 H   0  0  0  0  0  0  0  0  0  0  0  0
   18.5592   20.1625   22.5954 C   0  0  0  0  0  0  0  0  0  0  0  0
   18.1366   19.2929   22.0742 H   0  0  0  0  0  0  0  0  0  0  0  0
   17.7296   20.8750   22.6992 H   0  0  0  0  0  0  0  0  0  0  0  0
   21.3906   19.8489   24.5287 O   0  0  0  0  0  0  0  0  0  0  0  0
   21.0895   20.3224   25.3306 H   0  0  0  0  0  0  0  0  0  0  0  0
  1  2  1  0  0  0  0
  1  3  1  0  0  0  0
  1  4  1  0  0  0  0
  4  5  1  0  0  0  0
  4  6  1  0  0  0  0
  4  7  1  0  0  0  0
  7  8  1  0  0  0  0
  7  9  1  0  0  0  0
  7 10  1  0  0  0  0
 10 11  1  0  0  0  0
 10 12  1  0  0  0  0
 10 13  1  0  0  0  0
 13 14  1  0  0  0  0
 13 15  1  0  0  0  0
 15 16  1  0  0  0  0
 15 17  1  0  0  0  0
  1 18  1  0  0  0  0
 15 18  1  0  0  0  0
 18 19  1  0  0  0  0
 18 20  1  0  0  0  0
 13 21  1  0  0  0  0
 21 22  1  0  0  0  0
M  END
> <VConfSearch Rank>
150

> <Conf_Id>
104

> <Delta U+W>
-1.172

> <U+W>
5.252

> <U>
7.482

> <W>
-2.230

> <W(PB)>
-4.220

> <W(SA)>
1.990

> <Valence>
12.309

> <Coulomb>
-7.084

> <VdW>
2.258

> <VdW6>
-9.770

> <VdW12>
12.028

> <Bond>
0.284

> <Angle>
3.491

> <Pdih>
8.535

> <Idih>
0.000

> <Tether>
0.000

$$$$
VeraChem MOL file


 22 22  0  0  0  0  0  0  0  0999 V2000     
   19.2913   18.2351   22.1399 C   0  0  0  0  0  0  0  0  0  0  0  0
   20.2116   17.6356   22.1318 H   0  0  0  0  0  0  0  0  0  0  0  0
   18.4947   17.5708   21.7778 H   0  0  0  0  0  0  0  0  0  0  0  0
   19.3982   19.4241   21.1578 C   0  0  0  0  0  0  0  0  0  0  0  0
   19.2137   19.0550   20.1395 H   0  0  0  0  0  0  0  0  0  0  0  0
   18.5834   20.1329   21.3548 H   0  0  0  0  0  0  0  0  0  0  0  0
   20.7572   20.1689   21.1506 C   0  0  0  0  0  0  0  0  0  0  0  0
   20.5886   21.1968   20.8008 H   0  0  0  0  0  0  0  0  0  0  0  0
   21.4032   19.7057   20.3922 H   0  0  0  0  0  0  0  0  0  0  0  0
   21.5541   20.2085   22.4827 C   0  0  0  0  0  0  0  0  0  0  0  0
   22.0671   19.2481   22.6226 H   0  0  0  0  0  0  0  0  0  0  0  0
   22.3562   20.9501   22.3758 H   0  0  0  0  0  0  0  0  0  0  0  0
   20.7616   20.5398   23.7681 C   0  0  0  0  0  0  0  0  0  0  0  0
   21.4826   20.9124   24.5098 H   0  0  0  0  0  0  0  0  0  0  0  0
   20.0813   19.2995   24.3903 C   0  0  0  0  0  0  0  0  0  0  0  0
   20.8464   18.5342   24.5746 H   0  0  0  0  0  0  0  0  0  0  0  0
   19.6990   19.5796   25.3806 H   0  0  0  0  0  0  0  0  0  0  0  0
   18.9234   18.6663   23.5796 C   0  0  0  0  0  0  0  0  0  0  0  0
   18.5753   17.7797   24.1268 H   0  0  0  0  0  0  0  0  0  0  0  0
   18.0666   19.3532   23.5554 H   0  0  0  0  0  0  0  0  0  0  0  0
   19.7980   21.5501   23.5133 O   0  0  0  0  0  0  0  0  0  0  0  0
   19.2502   21.1809   22.7923 H   0  0  0  0  0  0  0  0  0  0  0  0
  1  2  1  0  0  0  0
  1  3  1  0  0  0  0
  1  4  1  0  0  0  0
  4  5  1  0  0  0  0
  4  6  1  0  0  0  0
  4  7  1  0  0  0  0
  7  8  1  0  0  0  0
  7  9  1  0  0  0  0
  7 10  1  0  0  0  0
 10 11  1  0  0  0  0
 10 12  1  0  0  0  0
 10 13  1  0  0  0  0
 13 14  1  0  0  0  0
 13 15  1  0  0  0  0
 15 16  1  0  0  0  0
 15 17  1  0  0  0  0
  1 18  1  0  0  0  0
 15 18  1  0  0  0  0
 18 19  1  0  0  0  0
 18 20  1  0  0  0  0
 13 21  1  0  0  0  0
 21 22  1  0  0  0  0
M  END
> <VConfSearch Rank>
151

> <Conf_Id>
99

> <Delta U+W>
-3.852

> <U+W>
2.572

> <U>
3.922

> <W>
-1.350

> <W(PB)>
-3.345

> <W(SA)>
1.995

> <Valence>
12.571

> <Coulomb>
-10.581

> <VdW>
1.932

> <VdW6>
-10.483

> <VdW12>
12.415

> <Bond>
0.268

> <Angle>
3.728

> <Pdih>
8.575

> <Idih>
0.000

> <Tether>
0.000

$$$$
VeraChem MOL file


 22 22  0  0  0  0  0  0  0  0999 V2000     
   19.7231   20.5989   21.3951 C   0  0  0  0  0  0  0  0  0  0  0  0
   19.3583   20.7750   20.3737 H   0  0  0  0  0  0  0  0  0  0  0  0
   19.9751   21.5955   21.7815 H   0  0  0  0  0  0  0  0  0  0  0  0
   21.0051   19.7207   21.2994 C   0  0  0  0  0  0  0  0  0  0  0  0
   21.1953   19.5169   20.2366 H   0  0  0  0  0  0  0  0  0  0  0  0
   21.8802   20.2904   21.6394 H   0  0  0  0  0  0  0  0  0  0  0  0
   20.9525   18.3596   22.0392 C   0  0  0  0  0  0  0  0  0  0  0  0
   21.8252   17.7659   21.7347 H   0  0  0  0  0  0  0  0  0  0  0  0
   20.0893   17.7805   21.6884 H   0  0  0  0  0  0  0  0  0  0  0  0
   20.9424   18.4279   23.5916 C   0  0  0  0  0  0  0  0  0  0  0  0
   20.5175   17.4906   23.9734 H   0  0  0  0  0  0  0  0  0  0  0  0
   21.9821   18.4401   23.9450 H   0  0  0  0  0  0  0  0  0  0  0  0
   20.2062   19.6108   24.2675 C   0  0  0  0  0  0  0  0  0  0  0  0
   20.1162   19.3630   25.3349 H   0  0  0  0  0  0  0  0  0  0  0  0
   18.7767   19.9118   23.7535 C   0  0  0  0  0  0  0  0  0  0  0  0
   18.0958   19.1501   24.1545 H   0  0  0  0  0  0  0  0  0  0  0  0
   18.4540   20.8578   24.2084 H   0  0  0  0  0  0  0  0  0  0  0  0
   18.5524   20.0038   22.2185 C   0  0  0  0  0  0  0  0  0  0  0  0
   18.2863   19.0156   21.8233 H   0  0  0  0  0  0  0  0  0  0  0  0
   17.6592   20.6197   22.0459 H   0  0  0  0  0  0  0  0  0  0  0  0
   21.0018   20.7820   24.1752 O   0  0  0  0  0  0  0  0  0  0  0  0
   21.0512   20.9591   23.2144 H   0  0  0  0  0  0  0  0  0  0  0  0
  1  2  1  0  0  0  0
  1  3  1  0  0  0  0
  1  4  1  0  0  0  0
  4  5  1  0  0  0  0
  4  6  1  0  0  0  0
  4  7  1  0  0  0  0
  7  8  1  0  0  0  0
  7  9  1  0  0  0  0
  7 10  1  0  0  0  0
 10 11  1  0  0  0  0
 10 12  1  0  0  0  0
 10 13  1  0  0  0  0
 13 14  1  0  0  0  0
 13 15  1  0  0  0  0
 15 16  1  0  0  0  0
 15 17  1  0  0  0  0
  1 18  1  0  0  0  0
 15 18  1  0  0  0  0
 18 19  1  0  0  0  0
 18 20  1  0  0  0  0
 13 21  1  0  0  0  0
 21 22  1  0  0  0  0
M  END
> <VConfSearch Rank>
152

> <Conf_Id>
98

> <Delta U+W>
0.930

> <U+W>
7.353

> <U>
8.455

> <W>
-1.102

> <W(PB)>
-3.101

> <W(SA)>
2.000

> <Valence>
15.601

> <Coulomb>
-10.573

> <VdW>
3.427

> <VdW6>
-11.360

> <VdW12>
14.787

> <Bond>
0.471

> <Angle>
5.445

> <Pdih>
9.685

> <Idih>
0.000

> <Tether>
0.000

$$$$
VeraChem MOL file


 22 22  0  0  0  0  0  0  0  0999 V2000     
   20.4828   18.5115   23.9554 C   0  0  0  0  0  0  0  0  0  0  0  0
   21.4533   18.4042   23.4539 H   0  0  0  0  0  0  0  0  0  0  0  0
   20.5823   17.9474   24.8927 H   0  0  0  0  0  0  0  0  0  0  0  0
   19.3738   17.8511   23.0975 C   0  0  0  0  0  0  0  0  0  0  0  0
   19.6393   16.7924   22.9720 H   0  0  0  0  0  0  0  0  0  0  0  0
   18.4266   17.8563   23.6536 H   0  0  0  0  0  0  0  0  0  0  0  0
   19.1414   18.4615   21.6875 C   0  0  0  0  0  0  0  0  0  0  0  0
   18.2370   19.0836   21.6912 H   0  0  0  0  0  0  0  0  0  0  0  0
   18.9176   17.6414   20.9919 H   0  0  0  0  0  0  0  0  0  0  0  0
   20.3311   19.2819   21.1224 C   0  0  0  0  0  0  0  0  0  0  0  0
   21.2448   18.6775   21.1804 H   0  0  0  0  0  0  0  0  0  0  0  0
   20.1637   19.4369   20.0480 H   0  0  0  0  0  0  0  0  0  0  0  0
   20.5871   20.6616   21.7968 C   0  0  0  0  0  0  0  0  0  0  0  0
   21.6659   20.7487   21.9911 H   0  0  0  0  0  0  0  0  0  0  0  0
   19.8347   20.9148   23.1272 C   0  0  0  0  0  0  0  0  0  0  0  0
   19.9992   21.9553   23.4361 H   0  0  0  0  0  0  0  0  0  0  0  0
   18.7537   20.8343   22.9610 H   0  0  0  0  0  0  0  0  0  0  0  0
   20.2453   19.9990   24.3072 C   0  0  0  0  0  0  0  0  0  0  0  0
   21.1648   20.3939   24.7604 H   0  0  0  0  0  0  0  0  0  0  0  0
   19.4729   20.0663   25.0854 H   0  0  0  0  0  0  0  0  0  0  0  0
   20.2018   21.6861   20.8874 O   0  0  0  0  0  0  0  0  0  0  0  0
   20.4262   22.5401   21.3122 H   0  0  0  0  0  0  0  0  0  0  0  0
  1  2  1  0  0  0  0
  1  3  1  0  0  0  0
  1  4  1  0  0  0  0
  4  5  1  0  0  0  0
  4  6  1  0  0  0  0
  4  7  1  0  0  0  0
  7  8  1  0  0  0  0
  7  9  1  0  0  0  0
  7 10  1  0  0  0  0
 10 11  1  0  0  0  0
 10 12  1  0  0  0  0
 10 13  1  0  0  0  0
 13 14  1  0  0  0  0
 13 15  1  0  0  0  0
 15 16  1  0  0  0  0
 15 17  1  0  0  0  0
  1 18  1  0  0  0  0
 15 18  1  0  0  0  0
 18 19  1  0  0  0  0
 18 20  1  0  0  0  0
 13 21  1  0  0  0  0
 21 22  1  0  0  0  0
M  END
> <VConfSearch Rank>
153

> <Conf_Id>
141

> <Delta U+W>
0.000

> <U+W>
6.423

> <U>
8.781

> <W>
-2.358

> <W(PB)>
-4.373

> <W(SA)>
2.015

> <Valence>
13.328

> <Coulomb>
-8.387

> <VdW>
3.840

> <VdW6>
-9.744

> <VdW12>
13.584

> <Bond>
0.436

> <Angle>
3.478

> <Pdih>
9.415

> <Idih>
0.000

> <Tether>
0.000

$$$$
VeraChem MOL file


 22 22  0  0  0  0  0  0  0  0999 V2000     
   21.3461   19.1807   23.6687 C   0  0  0  0  0  0  0  0  0  0  0  0
   20.7734   19.5174   24.5435 H   0  0  0  0  0  0  0  0  0  0  0  0
   22.2934   18.7851   24.0598 H   0  0  0  0  0  0  0  0  0  0  0  0
   21.6829   20.3695   22.7365 C   0  0  0  0  0  0  0  0  0  0  0  0
   22.4037   21.0219   23.2480 H   0  0  0  0  0  0  0  0  0  0  0  0
   22.2006   19.9959   21.8425 H   0  0  0  0  0  0  0  0  0  0  0  0
   20.4744   21.2316   22.3045 C   0  0  0  0  0  0  0  0  0  0  0  0
   20.8320   21.9928   21.5978 H   0  0  0  0  0  0  0  0  0  0  0  0
   20.0921   21.7852   23.1730 H   0  0  0  0  0  0  0  0  0  0  0  0
   19.3153   20.4477   21.6418 C   0  0  0  0  0  0  0  0  0  0  0  0
   18.6404   21.1803   21.1801 H   0  0  0  0  0  0  0  0  0  0  0  0
   19.6906   19.8199   20.8232 H   0  0  0  0  0  0  0  0  0  0  0  0
   18.5155   19.5967   22.6536 C   0  0  0  0  0  0  0  0  0  0  0  0
   18.5147   20.1213   23.6198 H   0  0  0  0  0  0  0  0  0  0  0  0
   19.0723   18.1719   22.8758 C   0  0  0  0  0  0  0  0  0  0  0  0
   18.6459   17.7922   23.8132 H   0  0  0  0  0  0  0  0  0  0  0  0
   18.6984   17.5082   22.0847 H   0  0  0  0  0  0  0  0  0  0  0  0
   20.6139   18.0312   22.9375 C   0  0  0  0  0  0  0  0  0  0  0  0
   20.8483   17.0826   23.4395 H   0  0  0  0  0  0  0  0  0  0  0  0
   21.0148   17.9320   21.9196 H   0  0  0  0  0  0  0  0  0  0  0  0
   17.1743   19.4791   22.1946 O   0  0  0  0  0  0  0  0  0  0  0  0
   16.8162   20.3894   22.1331 H   0  0  0  0  0  0  0  0  0  0  0  0
  1  2  1  0  0  0  0
  1  3  1  0  0  0  0
  1  4  1  0  0  0  0
  4  5  1  0  0  0  0
  4  6  1  0  0  0  0
  4  7  1  0  0  0  0
  7  8  1  0  0  0  0
  7  9  1  0  0  0  0
  7 10  1  0  0  0  0
 10 11  1  0  0  0  0
 10 12  1  0  0  0  0
 10 13  1  0  0  0  0
 13 14  1  0  0  0  0
 13 15  1  0  0  0  0
 15 16  1  0  0  0  0
 15 17  1  0  0  0  0
  1 18  1  0  0  0  0
 15 18  1  0  0  0  0
 18 19  1  0  0  0  0
 18 20  1  0  0  0  0
 13 21  1  0  0  0  0
 21 22  1  0  0  0  0
M  END
> <VConfSearch Rank>
154

> <Conf_Id>
144

> <Delta U+W>
-3.291

> <U+W>
3.132

> <U>
5.411

> <W>
-2.279

> <W(PB)>
-4.300

> <W(SA)>
2.021

> <Valence>
11.909

> <Coulomb>
-8.733

> <VdW>
2.236

> <VdW6>
-8.936

> <VdW12>
11.172

> <Bond>
0.223

> <Angle>
2.457

> <Pdih>
9.228

> <Idih>
0.000

> <Tether>
0.000

$$$$
VeraChem MOL file


 22 22  0  0  0  0  0  0  0  0999 V2000     
   21.2232   20.5865   22.1168 C   0  0  0  0  0  0  0  0  0  0  0  0
   22.1861   20.9865   21.7707 H   0  0  0  0  0  0  0  0  0  0  0  0
   20.5405   21.4451   22.1745 H   0  0  0  0  0  0  0  0  0  0  0  0
   21.4401   19.9600   23.5142 C   0  0  0  0  0  0  0  0  0  0  0  0
   21.8406   18.9434   23.4008 H   0  0  0  0  0  0  0  0  0  0  0  0
   22.2216   20.5256   24.0398 H   0  0  0  0  0  0  0  0  0  0  0  0
   20.1855   19.9259   24.4201 C   0  0  0  0  0  0  0  0  0  0  0  0
   20.0803   20.8976   24.9217 H   0  0  0  0  0  0  0  0  0  0  0  0
   20.3613   19.1946   25.2209 H   0  0  0  0  0  0  0  0  0  0  0  0
   18.8431   19.5960   23.7220 C   0  0  0  0  0  0  0  0  0  0  0  0
   18.1302   19.2820   24.4963 H   0  0  0  0  0  0  0  0  0  0  0  0
   18.4267   20.5147   23.2890 H   0  0  0  0  0  0  0  0  0  0  0  0
   18.9279   18.5084   22.6277 C   0  0  0  0  0  0  0  0  0  0  0  0
   19.6822   17.7601   22.9100 H   0  0  0  0  0  0  0  0  0  0  0  0
   19.2707   19.0915   21.2380 C   0  0  0  0  0  0  0  0  0  0  0  0
   19.0680   18.3269   20.4761 H   0  0  0  0  0  0  0  0  0  0  0  0
   18.5958   19.9281   21.0152 H   0  0  0  0  0  0  0  0  0  0  0  0
   20.7347   19.5612   21.0656 C   0  0  0  0  0  0  0  0  0  0  0  0
   21.4005   18.6873   21.0715 H   0  0  0  0  0  0  0  0  0  0  0  0
   20.8364   20.0078   20.0671 H   0  0  0  0  0  0  0  0  0  0  0  0
   17.6614   17.8703   22.5328 O   0  0  0  0  0  0  0  0  0  0  0  0
   17.0192   18.5661   22.2826 H   0  0  0  0  0  0  0  0  0  0  0  0
  1  2  1  0  0  0  0
  1  3  1  0  0  0  0
  1  4  1  0  0  0  0
  4  5  1  0  0  0  0
  4  6  1  0  0  0  0
  4  7  1  0  0  0  0
  7  8  1  0  0  0  0
  7  9  1  0  0  0  0
  7 10  1  0  0  0  0
 10 11  1  0  0  0  0
 10 12  1  0  0  0  0
 10 13  1  0  0  0  0
 13 14  1  0  0  0  0
 13 15  1  0  0  0  0
 15 16  1  0  0  0  0
 15 17  1  0  0  0  0
  1 18  1  0  0  0  0
 15 18  1  0  0  0  0
 18 19  1  0  0  0  0
 18 20  1  0  0  0  0
 13 21  1  0  0  0  0
 21 22  1  0  0  0  0
M  END
> <VConfSearch Rank>
155

> <Conf_Id>
76

> <Delta U+W>
-3.175

> <U+W>
3.248

> <U>
5.336

> <W>
-2.088

> <W(PB)>
-4.098

> <W(SA)>
2.010

> <Valence>
12.390

> <Coulomb>
-9.270

> <VdW>
2.216

> <VdW6>
-8.967

> <VdW12>
11.183

> <Bond>
0.218

> <Angle>
2.426

> <Pdih>
9.745

> <Idih>
0.000

> <Tether>
0.000

$$$$
VeraChem MOL file


 22 22  0  0  0  0  0  0  0  0999 V2000     
   19.8180   20.5706   24.2460 C   0  0  0  0  0  0  0  0  0  0  0  0
   20.5808   20.8542   24.9840 H   0  0  0  0  0  0  0  0  0  0  0  0
   18.8938   21.0716   24.5650 H   0  0  0  0  0  0  0  0  0  0  0  0
   19.6119   19.0391   24.3272 C   0  0  0  0  0  0  0  0  0  0  0  0
   20.5747   18.5497   24.5273 H   0  0  0  0  0  0  0  0  0  0  0  0
   18.9867   18.8268   25.2051 H   0  0  0  0  0  0  0  0  0  0  0  0
   18.9593   18.3997   23.0794 C   0  0  0  0  0  0  0  0  0  0  0  0
   18.1911   19.0603   22.6548 H   0  0  0  0  0  0  0  0  0  0  0  0
   18.4354   17.4884   23.3978 H   0  0  0  0  0  0  0  0  0  0  0  0
   19.9961   17.9954   22.0007 C   0  0  0  0  0  0  0  0  0  0  0  0
   20.7884   17.3969   22.4681 H   0  0  0  0  0  0  0  0  0  0  0  0
   19.5084   17.3268   21.2793 H   0  0  0  0  0  0  0  0  0  0  0  0
   20.6475   19.1538   21.2114 C   0  0  0  0  0  0  0  0  0  0  0  0
   21.4730   18.7170   20.6309 H   0  0  0  0  0  0  0  0  0  0  0  0
   21.2504   20.2862   22.0800 C   0  0  0  0  0  0  0  0  0  0  0  0
   21.9937   19.8690   22.7716 H   0  0  0  0  0  0  0  0  0  0  0  0
   21.8097   20.9538   21.4120 H   0  0  0  0  0  0  0  0  0  0  0  0
   20.2170   21.1376   22.8627 C   0  0  0  0  0  0  0  0  0  0  0  0
   20.6318   22.1428   23.0174 H   0  0  0  0  0  0  0  0  0  0  0  0
   19.3142   21.2860   22.2558 H   0  0  0  0  0  0  0  0  0  0  0  0
   19.6978   19.6913   20.2964 O   0  0  0  0  0  0  0  0  0  0  0  0
   20.1324   20.4508   19.8574 H   0  0  0  0  0  0  0  0  0  0  0  0
  1  2  1  0  0  0  0
  1  3  1  0  0  0  0
  1  4  1  0  0  0  0
  4  5  1  0  0  0  0
  4  6  1  0  0  0  0
  4  7  1  0  0  0  0
  7  8  1  0  0  0  0
  7  9  1  0  0  0  0
  7 10  1  0  0  0  0
 10 11  1  0  0  0  0
 10 12  1  0  0  0  0
 10 13  1  0  0  0  0
 13 14  1  0  0  0  0
 13 15  1  0  0  0  0
 15 16  1  0  0  0  0
 15 17  1  0  0  0  0
  1 18  1  0  0  0  0
 15 18  1  0  0  0  0
 18 19  1  0  0  0  0
 18 20  1  0  0  0  0
 13 21  1  0  0  0  0
 21 22  1  0  0  0  0
M  END
> <VConfSearch Rank>
156

> <Conf_Id>
95

> <Delta U+W>
-2.289

> <U+W>
4.134

> <U>
6.373

> <W>
-2.240

> <W(PB)>
-4.254

> <W(SA)>
2.015

> <Valence>
12.093

> <Coulomb>
-8.058

> <VdW>
2.339

> <VdW6>
-9.683

> <VdW12>
12.022

> <Bond>
0.268

> <Angle>
3.005

> <Pdih>
8.820

> <Idih>
0.000

> <Tether>
0.000

$$$$
VeraChem MOL file


 22 22  0  0  0  0  0  0  0  0999 V2000     
   19.7665   21.5166   22.8129 C   0  0  0  0  0  0  0  0  0  0  0  0
   19.1313   22.0673   23.5199 H   0  0  0  0  0  0  0  0  0  0  0  0
   20.2514   22.2810   22.1904 H   0  0  0  0  0  0  0  0  0  0  0  0
   18.8524   20.6470   21.9171 C   0  0  0  0  0  0  0  0  0  0  0  0
   18.0098   20.2690   22.5118 H   0  0  0  0  0  0  0  0  0  0  0  0
   18.4043   21.2992   21.1551 H   0  0  0  0  0  0  0  0  0  0  0  0
   19.5577   19.4641   21.2136 C   0  0  0  0  0  0  0  0  0  0  0  0
   20.5710   19.7439   20.8947 H   0  0  0  0  0  0  0  0  0  0  0  0
   19.0015   19.2340   20.2948 H   0  0  0  0  0  0  0  0  0  0  0  0
   19.5844   18.1817   22.0832 C   0  0  0  0  0  0  0  0  0  0  0  0
   18.5718   17.9793   22.4553 H   0  0  0  0  0  0  0  0  0  0  0  0
   19.8346   17.3274   21.4410 H   0  0  0  0  0  0  0  0  0  0  0  0
   20.5594   18.1913   23.2828 C   0  0  0  0  0  0  0  0  0  0  0  0
   20.3308   17.3001   23.8849 H   0  0  0  0  0  0  0  0  0  0  0  0
   20.4354   19.4177   24.2214 C   0  0  0  0  0  0  0  0  0  0  0  0
   19.4108   19.4917   24.6077 H   0  0  0  0  0  0  0  0  0  0  0  0
   21.0716   19.2233   25.0945 H   0  0  0  0  0  0  0  0  0  0  0  0
   20.8701   20.7705   23.6000 C   0  0  0  0  0  0  0  0  0  0  0  0
   21.2169   21.4328   24.4046 H   0  0  0  0  0  0  0  0  0  0  0  0
   21.7437   20.6200   22.9520 H   0  0  0  0  0  0  0  0  0  0  0  0
   21.8963   18.0734   22.8057 O   0  0  0  0  0  0  0  0  0  0  0  0
   21.9145   17.2984   22.2080 H   0  0  0  0  0  0  0  0  0  0  0  0
  1  2  1  0  0  0  0
  1  3  1  0  0  0  0
  1  4  1  0  0  0  0
  4  5  1  0  0  0  0
  4  6  1  0  0  0  0
  4  7  1  0  0  0  0
  7  8  1  0  0  0  0
  7  9  1  0  0  0  0
  7 10  1  0  0  0  0
 10 11  1  0  0  0  0
 10 12  1  0  0  0  0
 10 13  1  0  0  0  0
 13 14  1  0  0  0  0
 13 15  1  0  0  0  0
 15 16  1  0  0  0  0
 15 17  1  0  0  0  0
  1 18  1  0  0  0  0
 15 18  1  0  0  0  0
 18 19  1  0  0  0  0
 18 20  1  0  0  0  0
 13 21  1  0  0  0  0
 21 22  1  0  0  0  0
M  END
> <VConfSearch Rank>
157

> <Conf_Id>
41

> <Delta U+W>
-2.114

> <U+W>
4.310

> <U>
6.598

> <W>
-2.289

> <W(PB)>
-4.294

> <W(SA)>
2.005

> <Valence>
12.082

> <Coulomb>
-7.801

> <VdW>
2.317

> <VdW6>
-9.658

> <VdW12>
11.975

> <Bond>
0.267

> <Angle>
3.051

> <Pdih>
8.764

> <Idih>
0.000

> <Tether>
0.000

$$$$
VeraChem MOL file


 22 22  0  0  0  0  0  0  0  0999 V2000     
   18.5159   19.0318   22.4776 C   0  0  0  0  0  0  0  0  0  0  0  0
   17.4235   18.9346   22.4169 H   0  0  0  0  0  0  0  0  0  0  0  0
   18.9308   18.2739   21.7989 H   0  0  0  0  0  0  0  0  0  0  0  0
   18.9366   18.7475   23.9369 C   0  0  0  0  0  0  0  0  0  0  0  0
   18.5648   19.5491   24.5894 H   0  0  0  0  0  0  0  0  0  0  0  0
   18.4368   17.8291   24.2735 H   0  0  0  0  0  0  0  0  0  0  0  0
   20.4569   18.5755   24.1473 C   0  0  0  0  0  0  0  0  0  0  0  0
   20.7901   17.6476   23.6635 H   0  0  0  0  0  0  0  0  0  0  0  0
   20.6353   18.4277   25.2208 H   0  0  0  0  0  0  0  0  0  0  0  0
   21.3286   19.7674   23.6670 C   0  0  0  0  0  0  0  0  0  0  0  0
   20.9484   20.7063   24.0891 H   0  0  0  0  0  0  0  0  0  0  0  0
   22.3324   19.6369   24.0912 H   0  0  0  0  0  0  0  0  0  0  0  0
   21.4966   19.9105   22.1323 C   0  0  0  0  0  0  0  0  0  0  0  0
   22.3641   20.5665   21.9699 H   0  0  0  0  0  0  0  0  0  0  0  0
   20.3112   20.5694   21.3801 C   0  0  0  0  0  0  0  0  0  0  0  0
   20.5347   21.6381   21.2659 H   0  0  0  0  0  0  0  0  0  0  0  0
   20.2716   20.1725   20.3572 H   0  0  0  0  0  0  0  0  0  0  0  0
   18.9017   20.4531   22.0114 C   0  0  0  0  0  0  0  0  0  0  0  0
   18.8090   21.1571   22.8494 H   0  0  0  0  0  0  0  0  0  0  0  0
   18.1702   20.7879   21.2635 H   0  0  0  0  0  0  0  0  0  0  0  0
   21.7954   18.6474   21.5438 O   0  0  0  0  0  0  0  0  0  0  0  0
   21.9294   18.8058   20.5873 H   0  0  0  0  0  0  0  0  0  0  0  0
  1  2  1  0  0  0  0
  1  3  1  0  0  0  0
  1  4  1  0  0  0  0
  4  5  1  0  0  0  0
  4  6  1  0  0  0  0
  4  7  1  0  0  0  0
  7  8  1  0  0  0  0
  7  9  1  0  0  0  0
  7 10  1  0  0  0  0
 10 11  1  0  0  0  0
 10 12  1  0  0  0  0
 10 13  1  0  0  0  0
 13 14  1  0  0  0  0
 13 15  1  0  0  0  0
 15 16  1  0  0  0  0
 15 17  1  0  0  0  0
  1 18  1  0  0  0  0
 15 18  1  0  0  0  0
 18 19  1  0  0  0  0
 18 20  1  0  0  0  0
 13 21  1  0  0  0  0
 21 22  1  0  0  0  0
M  END
> <VConfSearch Rank>
158

> <Conf_Id>
104

> <Delta U+W>
-1.172

> <U+W>
5.252

> <U>
7.482

> <W>
-2.230

> <W(PB)>
-4.220

> <W(SA)>
1.990

> <Valence>
12.309

> <Coulomb>
-7.084

> <VdW>
2.258

> <VdW6>
-9.770

> <VdW12>
12.028

> <Bond>
0.284

> <Angle>
3.491

> <Pdih>
8.535

> <Idih>
0.000

> <Tether>
0.000

$$$$
VeraChem MOL file


 22 22  0  0  0  0  0  0  0  0999 V2000     
   20.5645   18.7134   23.9693 C   0  0  0  0  0  0  0  0  0  0  0  0
   19.9864   19.3197   24.6797 H   0  0  0  0  0  0  0  0  0  0  0  0
   21.0978   17.9667   24.5734 H   0  0  0  0  0  0  0  0  0  0  0  0
   21.6215   19.5744   23.2407 C   0  0  0  0  0  0  0  0  0  0  0  0
   22.4829   19.7112   23.9088 H   0  0  0  0  0  0  0  0  0  0  0  0
   22.0149   19.0166   22.3808 H   0  0  0  0  0  0  0  0  0  0  0  0
   21.1475   20.9788   22.7883 C   0  0  0  0  0  0  0  0  0  0  0  0
   21.7659   21.2973   21.9377 H   0  0  0  0  0  0  0  0  0  0  0  0
   21.3669   21.6951   23.5919 H   0  0  0  0  0  0  0  0  0  0  0  0
   19.6484   21.1383   22.4162 C   0  0  0  0  0  0  0  0  0  0  0  0
   19.0570   21.2217   23.3371 H   0  0  0  0  0  0  0  0  0  0  0  0
   19.5264   22.1034   21.9075 H   0  0  0  0  0  0  0  0  0  0  0  0
   19.0239   20.0420   21.5228 C   0  0  0  0  0  0  0  0  0  0  0  0
   18.1380   20.4790   21.0400 H   0  0  0  0  0  0  0  0  0  0  0  0
   18.5350   18.8173   22.3287 C   0  0  0  0  0  0  0  0  0  0  0  0
   17.8304   19.1607   23.0972 H   0  0  0  0  0  0  0  0  0  0  0  0
   17.9496   18.1768   21.6562 H   0  0  0  0  0  0  0  0  0  0  0  0
   19.6285   17.9510   23.0014 C   0  0  0  0  0  0  0  0  0  0  0  0
   19.1259   17.1530   23.5647 H   0  0  0  0  0  0  0  0  0  0  0  0
   20.2237   17.4396   22.2329 H   0  0  0  0  0  0  0  0  0  0  0  0
   19.9413   19.6334   20.5200 O   0  0  0  0  0  0  0  0  0  0  0  0
   20.7270   19.3379   21.0217 H   0  0  0  0  0  0  0  0  0  0  0  0
  1  2  1  0  0  0  0
  1  3  1  0  0  0  0
  1  4  1  0  0  0  0
  4  5  1  0  0  0  0
  4  6  1  0  0  0  0
  4  7  1  0  0  0  0
  7  8  1  0  0  0  0
  7  9  1  0  0  0  0
  7 10  1  0  0  0  0
 10 11  1  0  0  0  0
 10 12  1  0  0  0  0
 10 13  1  0  0  0  0
 13 14  1  0  0  0  0
 13 15  1  0  0  0  0
 15 16  1  0  0  0  0
 15 17  1  0  0  0  0
  1 18  1  0  0  0  0
 15 18  1  0  0  0  0
 18 19  1  0  0  0  0
 18 20  1  0  0  0  0
 13 21  1  0  0  0  0
 21 22  1  0  0  0  0
M  END
> <VConfSearch Rank>
159

> <Conf_Id>
99

> <Delta U+W>
-3.852

> <U+W>
2.572

> <U>
3.922

> <W>
-1.350

> <W(PB)>
-3.345

> <W(SA)>
1.995

> <Valence>
12.571

> <Coulomb>
-10.581

> <VdW>
1.932

> <VdW6>
-10.483

> <VdW12>
12.415

> <Bond>
0.268

> <Angle>
3.728

> <Pdih>
8.575

> <Idih>
0.000

> <Tether>
0.000

$$$$
VeraChem MOL file


 22 22  0  0  0  0  0  0  0  0999 V2000     
   21.1587   19.7438   21.4192 C   0  0  0  0  0  0  0  0  0  0  0  0
   21.4082   19.7341   20.3492 H   0  0  0  0  0  0  0  0  0  0  0  0
   22.0996   19.9946   21.9270 H   0  0  0  0  0  0  0  0  0  0  0  0
   20.7008   18.3096   21.8157 C   0  0  0  0  0  0  0  0  0  0  0  0
   20.7523   17.6791   20.9173 H   0  0  0  0  0  0  0  0  0  0  0  0
   21.4190   17.8632   22.5164 H   0  0  0  0  0  0  0  0  0  0  0  0
   19.2680   18.1901   22.3949 C   0  0  0  0  0  0  0  0  0  0  0  0
   19.0033   17.1253   22.4475 H   0  0  0  0  0  0  0  0  0  0  0  0
   18.5461   18.6190   21.6889 H   0  0  0  0  0  0  0  0  0  0  0  0
   19.0501   18.8041   23.8057 C   0  0  0  0  0  0  0  0  0  0  0  0
   17.9791   19.0112   23.9279 H   0  0  0  0  0  0  0  0  0  0  0  0
   19.2851   18.0386   24.5572 H   0  0  0  0  0  0  0  0  0  0  0  0
   19.8419   20.0818   24.1782 C   0  0  0  0  0  0  0  0  0  0  0  0
   19.3909   20.4802   25.0984 H   0  0  0  0  0  0  0  0  0  0  0  0
   19.8240   21.2272   23.1361 C   0  0  0  0  0  0  0  0  0  0  0  0
   18.8446   21.7208   23.1793 H   0  0  0  0  0  0  0  0  0  0  0  0
   20.5460   21.9859   23.4661 H   0  0  0  0  0  0  0  0  0  0  0  0
   20.1253   20.8754   21.6528 C   0  0  0  0  0  0  0  0  0  0  0  0
   19.1901   20.6362   21.1316 H   0  0  0  0  0  0  0  0  0  0  0  0
   20.4912   21.7860   21.1592 H   0  0  0  0  0  0  0  0  0  0  0  0
   21.1839   19.7379   24.4846 O   0  0  0  0  0  0  0  0  0  0  0  0
   21.5378   19.3918   23.6408 H   0  0  0  0  0  0  0  0  0  0  0  0
  1  2  1  0  0  0  0
  1  3  1  0  0  0  0
  1  4  1  0  0  0  0
  4  5  1  0  0  0  0
  4  6  1  0  0  0  0
  4  7  1  0  0  0  0
  7  8  1  0  0  0  0
  7  9  1  0  0  0  0
  7 10  1  0  0  0  0
 10 11  1  0  0  0  0
 10 12  1  0  0  0  0
 10 13  1  0  0  0  0
 13 14  1  0  0  0  0
 13 15  1  0  0  0  0
 15 16  1  0  0  0  0
 15 17  1  0  0  0  0
  1 18  1  0  0  0  0
 15 18  1  0  0  0  0
 18 19  1  0  0  0  0
 18 20  1  0  0  0  0
 13 21  1  0  0  0  0
 21 22  1  0  0  0  0
M  END
> <VConfSearch Rank>
160

> <Conf_Id>
98

> <Delta U+W>
0.930

> <U+W>
7.353

> <U>
8.455

> <W>
-1.102

> <W(PB)>
-3.101

> <W(SA)>
2.000

> <Valence>
15.601

> <Coulomb>
-10.573

> <VdW>
3.427

> <VdW6>
-11.360

> <VdW12>
14.787

> <Bond>
0.471

> <Angle>
5.445

> <Pdih>
9.685

> <Idih>
0.000

> <Tether>
0.000

$$$$
VeraChem MOL file


 22 22  0  0  0  0  0  0  0  0999 V2000     
   19.8002   18.2911   21.4875 C   0  0  0  0  0  0  0  0  0  0  0  0
   19.8752   17.5730   22.3143 H   0  0  0  0  0  0  0  0  0  0  0  0
   19.5967   17.6806   20.5972 H   0  0  0  0  0  0  0  0  0  0  0  0
   21.1597   19.0095   21.2927 C   0  0  0  0  0  0  0  0  0  0  0  0
   21.9134   18.2390   21.0803 H   0  0  0  0  0  0  0  0  0  0  0  0
   21.1171   19.6396   20.3940 H   0  0  0  0  0  0  0  0  0  0  0  0
   21.6637   19.8617   22.4904 C   0  0  0  0  0  0  0  0  0  0  0  0
   21.5040   20.9285   22.2868 H   0  0  0  0  0  0  0  0  0  0  0  0
   22.7541   19.7469   22.5575 H   0  0  0  0  0  0  0  0  0  0  0  0
   21.0401   19.4983   23.8639 C   0  0  0  0  0  0  0  0  0  0  0  0
   21.1461   18.4196   24.0333 H   0  0  0  0  0  0  0  0  0  0  0  0
   21.6441   19.9678   24.6520 H   0  0  0  0  0  0  0  0  0  0  0  0
   19.5499   19.9030   24.0627 C   0  0  0  0  0  0  0  0  0  0  0  0
   19.0215   19.0447   24.5022 H   0  0  0  0  0  0  0  0  0  0  0  0
   18.7894   20.3353   22.7840 C   0  0  0  0  0  0  0  0  0  0  0  0
   17.7978   20.7097   23.0697 H   0  0  0  0  0  0  0  0  0  0  0  0
   19.2965   21.1925   22.3251 H   0  0  0  0  0  0  0  0  0  0  0  0
   18.5896   19.2247   21.7227 C   0  0  0  0  0  0  0  0  0  0  0  0
   17.7314   18.6043   22.0147 H   0  0  0  0  0  0  0  0  0  0  0  0
   18.3095   19.6981   20.7718 H   0  0  0  0  0  0  0  0  0  0  0  0
   19.4967   20.9908   24.9787 O   0  0  0  0  0  0  0  0  0  0  0  0
   18.5486   21.1870   25.1297 H   0  0  0  0  0  0  0  0  0  0  0  0
  1  2  1  0  0  0  0
  1  3  1  0  0  0  0
  1  4  1  0  0  0  0
  4  5  1  0  0  0  0
  4  6  1  0  0  0  0
  4  7  1  0  0  0  0
  7  8  1  0  0  0  0
  7  9  1  0  0  0  0
  7 10  1  0  0  0  0
 10 11  1  0  0  0  0
 10 12  1  0  0  0  0
 10 13  1  0  0  0  0
 13 14  1  0  0  0  0
 13 15  1  0  0  0  0
 15 16  1  0  0  0  0
 15 17  1  0  0  0  0
  1 18  1  0  0  0  0
 15 18  1  0  0  0  0
 18 19  1  0  0  0  0
 18 20  1  0  0  0  0
 13 21  1  0  0  0  0
 21 22  1  0  0  0  0
M  END
> <VConfSearch Rank>
161

> <Conf_Id>
141

> <Delta U+W>
0.000

> <U+W>
6.423

> <U>
8.781

> <W>
-2.358

> <W(PB)>
-4.373

> <W(SA)>
2.015

> <Valence>
13.328

> <Coulomb>
-8.387

> <VdW>
3.840

> <VdW6>
-9.744

> <VdW12>
13.584

> <Bond>
0.436

> <Angle>
3.478

> <Pdih>
9.415

> <Idih>
0.000

> <Tether>
0.000

$$$$
VeraChem MOL file


 22 22  0  0  0  0  0  0  0  0999 V2000     
   18.6515   19.8175   21.5455 C   0  0  0  0  0  0  0  0  0  0  0  0
   18.4669   18.7361   21.6023 H   0  0  0  0  0  0  0  0  0  0  0  0
   17.8612   20.2271   20.9017 H   0  0  0  0  0  0  0  0  0  0  0  0
   20.0105   20.1121   20.8658 C   0  0  0  0  0  0  0  0  0  0  0  0
   19.9392   19.8334   19.8056 H   0  0  0  0  0  0  0  0  0  0  0  0
   20.1966   21.1947   20.8779 H   0  0  0  0  0  0  0  0  0  0  0  0
   21.2262   19.3777   21.4767 C   0  0  0  0  0  0  0  0  0  0  0  0
   22.1305   19.7200   20.9553 H   0  0  0  0  0  0  0  0  0  0  0  0
   21.1471   18.3026   21.2649 H   0  0  0  0  0  0  0  0  0  0  0  0
   21.4223   19.5905   22.9977 C   0  0  0  0  0  0  0  0  0  0  0  0
   22.4230   19.2213   23.2582 H   0  0  0  0  0  0  0  0  0  0  0  0
   21.4182   20.6605   23.2427 H   0  0  0  0  0  0  0  0  0  0  0  0
   20.3731   18.8371   23.8456 C   0  0  0  0  0  0  0  0  0  0  0  0
   20.1067   17.9094   23.3190 H   0  0  0  0  0  0  0  0  0  0  0  0
   19.0748   19.6316   24.1150 C   0  0  0  0  0  0  0  0  0  0  0  0
   18.3056   18.9134   24.4269 H   0  0  0  0  0  0  0  0  0  0  0  0
   19.2288   20.2991   24.9735 H   0  0  0  0  0  0  0  0  0  0  0  0
   18.5207   20.4747   22.9394 C   0  0  0  0  0  0  0  0  0  0  0  0
   17.4601   20.6797   23.1391 H   0  0  0  0  0  0  0  0  0  0  0  0
   19.0127   21.4568   22.9277 H   0  0  0  0  0  0  0  0  0  0  0  0
   20.9530   18.5017   25.1004 O   0  0  0  0  0  0  0  0  0  0  0  0
   21.7301   17.9356   24.9100 H   0  0  0  0  0  0  0  0  0  0  0  0
  1  2  1  0  0  0  0
  1  3  1  0  0  0  0
  1  4  1  0  0  0  0
  4  5  1  0  0  0  0
  4  6  1  0  0  0  0
  4  7  1  0  0  0  0
  7  8  1  0  0  0  0
  7  9  1  0  0  0  0
  7 10  1  0  0  0  0
 10 11  1  0  0  0  0
 10 12  1  0  0  0  0
 10 13  1  0  0  0  0
 13 14  1  0  0  0  0
 13 15  1  0  0  0  0
 15 16  1  0  0  0  0
 15 17  1  0  0  0  0
  1 18  1  0  0  0  0
 15 18  1  0  0  0  0
 18 19  1  0  0  0  0
 18 20  1  0  0  0  0
 13 21  1  0  0  0  0
 21 22  1  0  0  0  0
M  END
> <VConfSearch Rank>
162

> <Conf_Id>
144

> <Delta U+W>
-3.291

> <U+W>
3.132

> <U>
5.411

> <W>
-2.279

> <W(PB)>
-4.300

> <W(SA)>
2.021

> <Valence>
11.909

> <Coulomb>
-8.733

> <VdW>
2.236

> <VdW6>
-8.936

> <VdW12>
11.172

> <Bond>
0.223

> <Angle>
2.457

> <Pdih>
9.228

> <Idih>
0.000

> <Tether>
0.000

$$$$
VeraChem MOL file


 22 22  0  0  0  0  0  0  0  0999 V2000     
   19.7326   21.2258   23.0555 C   0  0  0  0  0  0  0  0  0  0  0  0
   19.3651   22.2581   23.1346 H   0  0  0  0  0  0  0  0  0  0  0  0
   20.6282   21.1727   23.6892 H   0  0  0  0  0  0  0  0  0  0  0  0
   20.0886   20.9571   21.5746 C   0  0  0  0  0  0  0  0  0  0  0  0
   19.1770   20.6926   21.0216 H   0  0  0  0  0  0  0  0  0  0  0  0
   20.4462   21.8911   21.1199 H   0  0  0  0  0  0  0  0  0  0  0  0
   21.1682   19.8718   21.3456 C   0  0  0  0  0  0  0  0  0  0  0  0
   22.1619   20.3274   21.4550 H   0  0  0  0  0  0  0  0  0  0  0  0
   21.1052   19.5416   20.2996 H   0  0  0  0  0  0  0  0  0  0  0  0
   21.1021   18.6315   22.2705 C   0  0  0  0  0  0  0  0  0  0  0  0
   21.6820   17.8279   21.7966 H   0  0  0  0  0  0  0  0  0  0  0  0
   21.6193   18.8561   23.2123 H   0  0  0  0  0  0  0  0  0  0  0  0
   19.6755   18.1245   22.5794 C   0  0  0  0  0  0  0  0  0  0  0  0
   19.0311   18.2813   21.7027 H   0  0  0  0  0  0  0  0  0  0  0  0
   19.0533   18.8203   23.8114 C   0  0  0  0  0  0  0  0  0  0  0  0
   18.1686   18.2512   24.1271 H   0  0  0  0  0  0  0  0  0  0  0  0
   19.7581   18.7761   24.6519 H   0  0  0  0  0  0  0  0  0  0  0  0
   18.6217   20.2891   23.5880 C   0  0  0  0  0  0  0  0  0  0  0  0
   17.7627   20.3161   22.9038 H   0  0  0  0  0  0  0  0  0  0  0  0
   18.2555   20.6882   24.5438 H   0  0  0  0  0  0  0  0  0  0  0  0
   19.7460   16.7318   22.8542 O   0  0  0  0  0  0  0  0  0  0  0  0
   20.3272   16.6332   23.6363 H   0  0  0  0  0  0  0  0  0  0  0  0
  1  2  1  0  0  0  0
  1  3  1  0  0  0  0
  1  4  1  0  0  0  0
  4  5  1  0  0  0  0
  4  6  1  0  0  0  0
  4  7  1  0  0  0  0
  7  8  1  0  0  0  0
  7  9  1  0  0  0  0
  7 10  1  0  0  0  0
 10 11  1  0  0  0  0
 10 12  1  0  0  0  0
 10 13  1  0  0  0  0
 13 14  1  0  0  0  0
 13 15  1  0  0  0  0
 15 16  1  0  0  0  0
 15 17  1  0  0  0  0
  1 18  1  0  0  0  0
 15 18  1  0  0  0  0
 18 19  1  0  0  0  0
 18 20  1  0  0  0  0
 13 21  1  0  0  0  0
 21 22  1  0  0  0  0
M  END
> <VConfSearch Rank>
163

> <Conf_Id>
76

> <Delta U+W>
-3.175

> <U+W>
3.248

> <U>
5.336

> <W>
-2.088

> <W(PB)>
-4.098

> <W(SA)>
2.010

> <Valence>
12.390

> <Coulomb>
-9.270

> <VdW>
2.216

> <VdW6>
-8.967

> <VdW12>
11.183

> <Bond>
0.218

> <Angle>
2.426

> <Pdih>
9.745

> <Idih>
0.000

> <Tether>
0.000

$$$$
VeraChem MOL file


 22 22  0  0  0  0  0  0  0  0999 V2000     
   18.7262   18.4304   23.3542 C   0  0  0  0  0  0  0  0  0  0  0  0
   17.7374   18.7254   23.7309 H   0  0  0  0  0  0  0  0  0  0  0  0
   18.7361   17.3320   23.3713 H   0  0  0  0  0  0  0  0  0  0  0  0
   19.7965   18.9569   24.3401 C   0  0  0  0  0  0  0  0  0  0  0  0
   19.4856   19.9353   24.7305 H   0  0  0  0  0  0  0  0  0  0  0  0
   19.8158   18.2863   25.2100 H   0  0  0  0  0  0  0  0  0  0  0  0
   21.2252   19.0656   23.7581 C   0  0  0  0  0  0  0  0  0  0  0  0
   21.4358   18.2325   23.0737 H   0  0  0  0  0  0  0  0  0  0  0  0
   21.9393   18.9673   24.5867 H   0  0  0  0  0  0  0  0  0  0  0  0
   21.4893   20.4273   23.0666 C   0  0  0  0  0  0  0  0  0  0  0  0
   21.2025   21.2391   23.7471 H   0  0  0  0  0  0  0  0  0  0  0  0
   22.5709   20.5387   22.9142 H   0  0  0  0  0  0  0  0  0  0  0  0
   20.7913   20.6488   21.7054 C   0  0  0  0  0  0  0  0  0  0  0  0
   20.9305   21.7084   21.4465 H   0  0  0  0  0  0  0  0  0  0  0  0
   19.2667   20.3734   21.6939 C   0  0  0  0  0  0  0  0  0  0  0  0
   18.7705   20.9955   22.4499 H   0  0  0  0  0  0  0  0  0  0  0  0
   18.8759   20.7150   20.7268 H   0  0  0  0  0  0  0  0  0  0  0  0
   18.8640   18.8876   21.8824 C   0  0  0  0  0  0  0  0  0  0  0  0
   17.8998   18.7168   21.3848 H   0  0  0  0  0  0  0  0  0  0  0  0
   19.5783   18.2349   21.3637 H   0  0  0  0  0  0  0  0  0  0  0  0
   21.4388   19.8607   20.7116 O   0  0  0  0  0  0  0  0  0  0  0  0
   20.9358   19.9900   19.8818 H   0  0  0  0  0  0  0  0  0  0  0  0
  1  2  1  0  0  0  0
  1  3  1  0  0  0  0
  1  4  1  0  0  0  0
  4  5  1  0  0  0  0
  4  6  1  0  0  0  0
  4  7  1  0  0  0  0
  7  8  1  0  0  0  0
  7  9  1  0  0  0  0
  7 10  1  0  0  0  0
 10 11  1  0  0  0  0
 10 12  1  0  0  0  0
 10 13  1  0  0  0  0
 13 14  1  0  0  0  0
 13 15  1  0  0  0  0
 15 16  1  0  0  0  0
 15 17  1  0  0  0  0
  1 18  1  0  0  0  0
 15 18  1  0  0  0  0
 18 19  1  0  0  0  0
 18 20  1  0  0  0  0
 13 21  1  0  0  0  0
 21 22  1  0  0  0  0
M  END
> <VConfSearch Rank>
164

> <Conf_Id>
95

> <Delta U+W>
-2.289

> <U+W>
4.134

> <U>
6.373

> <W>
-2.240

> <W(PB)>
-4.254

> <W(SA)>
2.015

> <Valence>
12.093

> <Coulomb>
-8.058

> <VdW>
2.339

> <VdW6>
-9.683

> <VdW12>
12.022

> <Bond>
0.268

> <Angle>
3.005

> <Pdih>
8.820

> <Idih>
0.000

> <Tether>
0.000

$$$$
VeraChem MOL file


 22 22  0  0  0  0  0  0  0  0999 V2000     
   19.3602   18.6624   24.2072 C   0  0  0  0  0  0  0  0  0  0  0  0
   18.3343   18.6629   24.6001 H   0  0  0  0  0  0  0  0  0  0  0  0
   19.9188   17.9536   24.8335 H   0  0  0  0  0  0  0  0  0  0  0  0
   19.9536   20.0782   24.4017 C   0  0  0  0  0  0  0  0  0  0  0  0
   19.1665   20.8290   24.2487 H   0  0  0  0  0  0  0  0  0  0  0  0
   20.2541   20.1785   25.4535 H   0  0  0  0  0  0  0  0  0  0  0  0
   21.1648   20.4108   23.4995 C   0  0  0  0  0  0  0  0  0  0  0  0
   21.8123   19.5327   23.3711 H   0  0  0  0  0  0  0  0  0  0  0  0
   21.7742   21.1666   24.0131 H   0  0  0  0  0  0  0  0  0  0  0  0
   20.7449   20.9955   22.1272 C   0  0  0  0  0  0  0  0  0  0  0  0
   20.0324   21.8147   22.2890 H   0  0  0  0  0  0  0  0  0  0  0  0
   21.6227   21.4613   21.6609 H   0  0  0  0  0  0  0  0  0  0  0  0
   20.1303   19.9971   21.1197 C   0  0  0  0  0  0  0  0  0  0  0  0
   19.7327   20.5924   20.2851 H   0  0  0  0  0  0  0  0  0  0  0  0
   18.9582   19.1457   21.6691 C   0  0  0  0  0  0  0  0  0  0  0  0
   18.1592   19.8017   22.0374 H   0  0  0  0  0  0  0  0  0  0  0  0
   18.5292   18.5983   20.8199 H   0  0  0  0  0  0  0  0  0  0  0  0
   19.3470   18.1144   22.7602 C   0  0  0  0  0  0  0  0  0  0  0  0
   18.6370   17.2773   22.7230 H   0  0  0  0  0  0  0  0  0  0  0  0
   20.3257   17.6747   22.5264 H   0  0  0  0  0  0  0  0  0  0  0  0
   21.1550   19.1487   20.6108 O   0  0  0  0  0  0  0  0  0  0  0  0
   21.8733   19.7335   20.2943 H   0  0  0  0  0  0  0  0  0  0  0  0
  1  2  1  0  0  0  0
  1  3  1  0  0  0  0
  1  4  1  0  0  0  0
  4  5  1  0  0  0  0
  4  6  1  0  0  0  0
  4  7  1  0  0  0  0
  7  8  1  0  0  0  0
  7  9  1  0  0  0  0
  7 10  1  0  0  0  0
 10 11  1  0  0  0  0
 10 12  1  0  0  0  0
 10 13  1  0  0  0  0
 13 14  1  0  0  0  0
 13 15  1  0  0  0  0
 15 16  1  0  0  0  0
 15 17  1  0  0  0  0
  1 18  1  0  0  0  0
 15 18  1  0  0  0  0
 18 19  1  0  0  0  0
 18 20  1  0  0  0  0
 13 21  1  0  0  0  0
 21 22  1  0  0  0  0
M  END
> <VConfSearch Rank>
165

> <Conf_Id>
41

> <Delta U+W>
-2.114

> <U+W>
4.310

> <U>
6.598

> <W>
-2.289

> <W(PB)>
-4.294

> <W(SA)>
2.005

> <Valence>
12.082

> <Coulomb>
-7.801

> <VdW>
2.317

> <VdW6>
-9.658

> <VdW12>
11.975

> <Bond>
0.267

> <Angle>
3.051

> <Pdih>
8.764

> <Idih>
0.000

> <Tether>
0.000

$$$$
VeraChem MOL file


 22 22  0  0  0  0  0  0  0  0999 V2000     
   21.5306   20.2116   22.2305 C   0  0  0  0  0  0  0  0  0  0  0  0
   22.4135   20.8464   22.0758 H   0  0  0  0  0  0  0  0  0  0  0  0
   21.8092   19.2068   21.8840 H   0  0  0  0  0  0  0  0  0  0  0  0
   20.3790   20.7849   21.3746 C   0  0  0  0  0  0  0  0  0  0  0  0
   20.0741   21.7612   21.7752 H   0  0  0  0  0  0  0  0  0  0  0  0
   20.7578   20.9799   20.3622 H   0  0  0  0  0  0  0  0  0  0  0  0
   19.1427   19.8663   21.2596 C   0  0  0  0  0  0  0  0  0  0  0  0
   19.4016   18.9775   20.6689 H   0  0  0  0  0  0  0  0  0  0  0  0
   18.3804   20.3969   20.6736 H   0  0  0  0  0  0  0  0  0  0  0  0
   18.5098   19.4395   22.6118 C   0  0  0  0  0  0  0  0  0  0  0  0
   18.3219   20.3228   23.2353 H   0  0  0  0  0  0  0  0  0  0  0  0
   17.5216   19.0135   22.3960 H   0  0  0  0  0  0  0  0  0  0  0  0
   19.2964   18.3792   23.4249 C   0  0  0  0  0  0  0  0  0  0  0  0
   18.5930   17.9584   24.1579 H   0  0  0  0  0  0  0  0  0  0  0  0
   20.5031   18.9107   24.2413 C   0  0  0  0  0  0  0  0  0  0  0  0
   20.1612   19.0989   25.2674 H   0  0  0  0  0  0  0  0  0  0  0  0
   21.2540   18.1146   24.3294 H   0  0  0  0  0  0  0  0  0  0  0  0
   21.2028   20.1983   23.7399 C   0  0  0  0  0  0  0  0  0  0  0  0
   20.5956   21.0769   23.9962 H   0  0  0  0  0  0  0  0  0  0  0  0
   22.1388   20.3129   24.3035 H   0  0  0  0  0  0  0  0  0  0  0  0
   19.7222   17.3160   22.5768 O   0  0  0  0  0  0  0  0  0  0  0  0
   20.1746   16.6625   23.1480 H   0  0  0  0  0  0  0  0  0  0  0  0
  1  2  1  0  0  0  0
  1  3  1  0  0  0  0
  1  4  1  0  0  0  0
  4  5  1  0  0  0  0
  4  6  1  0  0  0  0
  4  7  1  0  0  0  0
  7  8  1  0  0  0  0
  7  9  1  0  0  0  0
  7 10  1  0  0  0  0
 10 11  1  0  0  0  0
 10 12  1  0  0  0  0
 10 13  1  0  0  0  0
 13 14  1  0  0  0  0
 13 15  1  0  0  0  0
 15 16  1  0  0  0  0
 15 17  1  0  0  0  0
  1 18  1  0  0  0  0
 15 18  1  0  0  0  0
 18 19  1  0  0  0  0
 18 20  1  0  0  0  0
 13 21  1  0  0  0  0
 21 22  1  0  0  0  0
M  END
> <VConfSearch Rank>
166

> <Conf_Id>
104

> <Delta U+W>
-1.172

> <U+W>
5.252

> <U>
7.482

> <W>
-2.230

> <W(PB)>
-4.220

> <W(SA)>
1.990

> <Valence>
12.309

> <Coulomb>
-7.084

> <VdW>
2.258

> <VdW6>
-9.770

> <VdW12>
12.028

> <Bond>
0.284

> <Angle>
3.491

> <Pdih>
8.535

> <Idih>
0.000

> <Tether>
0.000

$$$$
VeraChem MOL file


 22 22  0  0  0  0  0  0  0  0999 V2000     
   21.1229   20.7848   22.2804 C   0  0  0  0  0  0  0  0  0  0  0  0
   21.6259   20.1784   21.5150 H   0  0  0  0  0  0  0  0  0  0  0  0
   21.6542   21.7462   22.3015 H   0  0  0  0  0  0  0  0  0  0  0  0
   21.2617   20.1372   23.6771 C   0  0  0  0  0  0  0  0  0  0  0  0
   22.2605   20.3681   24.0726 H   0  0  0  0  0  0  0  0  0  0  0  0
   20.5625   20.6194   24.3726 H   0  0  0  0  0  0  0  0  0  0  0  0
   21.0793   18.5990   23.7252 C   0  0  0  0  0  0  0  0  0  0  0  0
   20.7517   18.3190   24.7359 H   0  0  0  0  0  0  0  0  0  0  0  0
   22.0636   18.1282   23.5975 H   0  0  0  0  0  0  0  0  0  0  0  0
   20.1184   17.9635   22.6840 C   0  0  0  0  0  0  0  0  0  0  0  0
   20.6362   17.8844   21.7193 H   0  0  0  0  0  0  0  0  0  0  0  0
   19.9228   16.9279   22.9912 H   0  0  0  0  0  0  0  0  0  0  0  0
   18.7581   18.6636   22.4614 C   0  0  0  0  0  0  0  0  0  0  0  0
   18.0724   17.9176   22.0345 H   0  0  0  0  0  0  0  0  0  0  0  0
   18.8406   19.8267   21.4471 C   0  0  0  0  0  0  0  0  0  0  0  0
   19.2554   19.4435   20.5057 H   0  0  0  0  0  0  0  0  0  0  0  0
   17.8177   20.1473   21.2103 H   0  0  0  0  0  0  0  0  0  0  0  0
   19.6544   21.0696   21.8850 C   0  0  0  0  0  0  0  0  0  0  0  0
   19.6544   21.7829   21.0496 H   0  0  0  0  0  0  0  0  0  0  0  0
   19.1390   21.5807   22.7093 H   0  0  0  0  0  0  0  0  0  0  0  0
   18.2277   19.1259   23.6939 O   0  0  0  0  0  0  0  0  0  0  0  0
   18.9244   19.7137   24.0479 H   0  0  0  0  0  0  0  0  0  0  0  0
  1  2  1  0  0  0  0
  1  3  1  0  0  0  0
  1  4  1  0  0  0  0
  4  5  1  0  0  0  0
  4  6  1  0  0  0  0
  4  7  1  0  0  0  0
  7  8  1  0  0  0  0
  7  9  1  0  0  0  0
  7 10  1  0  0  0  0
 10 11  1  0  0  0  0
 10 12  1  0  0  0  0
 10 13  1  0  0  0  0
 13 14  1  0  0  0  0
 13 15  1  0  0  0  0
 15 16  1  0  0  0  0
 15 17  1  0  0  0  0
  1 18  1  0  0  0  0
 15 18  1  0  0  0  0
 18 19  1  0  0  0  0
 18 20  1  0  0  0  0
 13 21  1  0  0  0  0
 21 22  1  0  0  0  0
M  END
> <VConfSearch Rank>
167

> <Conf_Id>
99

> <Delta U+W>
-3.852

> <U+W>
2.572

> <U>
3.922

> <W>
-1.350

> <W(PB)>
-3.345

> <W(SA)>
1.995

> <Valence>
12.571

> <Coulomb>
-10.581

> <VdW>
1.932

> <VdW6>
-10.483

> <VdW12>
12.415

> <Bond>
0.268

> <Angle>
3.728

> <Pdih>
8.575

> <Idih>
0.000

> <Tether>
0.000

$$$$
VeraChem MOL file


 22 22  0  0  0  0  0  0  0  0999 V2000     
   19.5077   18.3141   21.7695 C   0  0  0  0  0  0  0  0  0  0  0  0
   19.4014   17.7726   20.8193 H   0  0  0  0  0  0  0  0  0  0  0  0
   18.9853   17.6929   22.5093 H   0  0  0  0  0  0  0  0  0  0  0  0
   18.7896   19.6873   21.6193 C   0  0  0  0  0  0  0  0  0  0  0  0
   18.3723   19.7401   20.6042 H   0  0  0  0  0  0  0  0  0  0  0  0
   17.9183   19.7337   22.2862 H   0  0  0  0  0  0  0  0  0  0  0  0
   19.6735   20.9427   21.8323 C   0  0  0  0  0  0  0  0  0  0  0  0
   19.1047   21.8256   21.5106 H   0  0  0  0  0  0  0  0  0  0  0  0
   20.5354   20.9081   21.1544 H   0  0  0  0  0  0  0  0  0  0  0  0
   20.1598   21.1947   23.2866 C   0  0  0  0  0  0  0  0  0  0  0  0
   21.0519   21.8327   23.2442 H   0  0  0  0  0  0  0  0  0  0  0  0
   19.4001   21.7926   23.8075 H   0  0  0  0  0  0  0  0  0  0  0  0
   20.4771   19.9669   24.1754 C   0  0  0  0  0  0  0  0  0  0  0  0
   21.0104   20.3426   25.0604 H   0  0  0  0  0  0  0  0  0  0  0  0
   21.3727   18.8746   23.5406 C   0  0  0  0  0  0  0  0  0  0  0  0
   22.4082   19.2383   23.5285 H   0  0  0  0  0  0  0  0  0  0  0  0
   21.3759   18.0128   24.2212 H   0  0  0  0  0  0  0  0  0  0  0  0
   21.0179   18.3717   22.1137 C   0  0  0  0  0  0  0  0  0  0  0  0
   21.5454   18.9769   21.3660 H   0  0  0  0  0  0  0  0  0  0  0  0
   21.4381   17.3632   21.9988 H   0  0  0  0  0  0  0  0  0  0  0  0
   19.2667   19.3841   24.6320 O   0  0  0  0  0  0  0  0  0  0  0  0
   18.8333   19.0679   23.8141 H   0  0  0  0  0  0  0  0  0  0  0  0
  1  2  1  0  0  0  0
  1  3  1  0  0  0  0
  1  4  1  0  0  0  0
  4  5  1  0  0  0  0
  4  6  1  0  0  0  0
  4  7  1  0  0  0  0
  7  8  1  0  0  0  0
  7  9  1  0  0  0  0
  7 10  1  0  0  0  0
 10 11  1  0  0  0  0
 10 12  1  0  0  0  0
 10 13  1  0  0  0  0
 13 14  1  0  0  0  0
 13 15  1  0  0  0  0
 15 16  1  0  0  0  0
 15 17  1  0  0  0  0
  1 18  1  0  0  0  0
 15 18  1  0  0  0  0
 18 19  1  0  0  0  0
 18 20  1  0  0  0  0
 13 21  1  0  0  0  0
 21 22  1  0  0  0  0
M  END
> <VConfSearch Rank>
168

> <Conf_Id>
98

> <Delta U+W>
0.930

> <U+W>
7.353

> <U>
8.455

> <W>
-1.102

> <W(PB)>
-3.101

> <W(SA)>
2.000

> <Valence>
15.601

> <Coulomb>
-10.573

> <VdW>
3.427

> <VdW6>
-11.360

> <VdW12>
14.787

> <Bond>
0.471

> <Angle>
5.445

> <Pdih>
9.685

> <Idih>
0.000

> <Tether>
0.000

$$$$
VeraChem MOL file


 22 22  0  0  0  0  0  0  0  0999 V2000     
   18.3283   19.8315   22.7907 C   0  0  0  0  0  0  0  0  0  0  0  0
   18.4920   20.7348   22.1890 H   0  0  0  0  0  0  0  0  0  0  0  0
   17.2432   19.7926   22.9574 H   0  0  0  0  0  0  0  0  0  0  0  0
   19.0330   19.9813   24.1630 C   0  0  0  0  0  0  0  0  0  0  0  0
   18.6107   20.8672   24.6566 H   0  0  0  0  0  0  0  0  0  0  0  0
   18.7713   19.1297   24.8056 H   0  0  0  0  0  0  0  0  0  0  0  0
   20.5786   20.1382   24.1276 C   0  0  0  0  0  0  0  0  0  0  0  0
   21.0594   19.1936   24.4131 H   0  0  0  0  0  0  0  0  0  0  0  0
   20.8684   20.8511   24.9115 H   0  0  0  0  0  0  0  0  0  0  0  0
   21.1588   20.6254   22.7735 C   0  0  0  0  0  0  0  0  0  0  0  0
   20.6302   21.5349   22.4618 H   0  0  0  0  0  0  0  0  0  0  0  0
   22.1966   20.9452   22.9379 H   0  0  0  0  0  0  0  0  0  0  0  0
   21.1283   19.5921   21.6093 C   0  0  0  0  0  0  0  0  0  0  0  0
   20.7508   20.1035   20.7121 H   0  0  0  0  0  0  0  0  0  0  0  0
   20.2614   18.3302   21.8467 C   0  0  0  0  0  0  0  0  0  0  0  0
   20.4179   17.6299   21.0160 H   0  0  0  0  0  0  0  0  0  0  0  0
   20.6180   17.7997   22.7378 H   0  0  0  0  0  0  0  0  0  0  0  0
   18.7384   18.5846   21.9724 C   0  0  0  0  0  0  0  0  0  0  0  0
   18.3099   18.6808   20.9654 H   0  0  0  0  0  0  0  0  0  0  0  0
   18.2719   17.6938   22.4145 H   0  0  0  0  0  0  0  0  0  0  0  0
   22.4593   19.1543   21.3604 O   0  0  0  0  0  0  0  0  0  0  0  0
   22.4189   18.5514   20.5890 H   0  0  0  0  0  0  0  0  0  0  0  0
  1  2  1  0  0  0  0
  1  3  1  0  0  0  0
  1  4  1  0  0  0  0
  4  5  1  0  0  0  0
  4  6  1  0  0  0  0
  4  7  1  0  0  0  0
  7  8  1  0  0  0  0
  7  9  1  0  0  0  0
  7 10  1  0  0  0  0
 10 11  1  0  0  0  0
 10 12  1  0  0  0  0
 10 13  1  0  0  0  0
 13 14  1  0  0  0  0
 13 15  1  0  0  0  0
 15 16  1  0  0  0  0
 15 17  1  0  0  0  0
  1 18  1  0  0  0  0
 15 18  1  0  0  0  0
 18 19  1  0  0  0  0
 18 20  1  0  0  0  0
 13 21  1  0  0  0  0
 21 22  1  0  0  0  0
M  END
> <VConfSearch Rank>
169

> <Conf_Id>
141

> <Delta U+W>
0.000

> <U+W>
6.423

> <U>
8.781

> <W>
-2.358

> <W(PB)>
-4.373

> <W(SA)>
2.015

> <Valence>
13.328

> <Coulomb>
-8.387

> <VdW>
3.840

> <VdW6>
-9.744

> <VdW12>
13.584

> <Bond>
0.436

> <Angle>
3.478

> <Pdih>
9.415

> <Idih>
0.000

> <Tether>
0.000

$$$$
VeraChem MOL file


 22 22  0  0  0  0  0  0  0  0999 V2000     
   18.8028   18.3977   23.0962 C   0  0  0  0  0  0  0  0  0  0  0  0
   18.8892   17.9818   22.0833 H   0  0  0  0  0  0  0  0  0  0  0  0
   18.1082   17.7400   23.6364 H   0  0  0  0  0  0  0  0  0  0  0  0
   18.1782   19.8135   23.0619 C   0  0  0  0  0  0  0  0  0  0  0  0
   17.1264   19.7246   22.7576 H   0  0  0  0  0  0  0  0  0  0  0  0
   18.1605   20.2284   24.0790 H   0  0  0  0  0  0  0  0  0  0  0  0
   18.8716   20.8172   22.1122 C   0  0  0  0  0  0  0  0  0  0  0  0
   18.3817   21.7935   22.2290 H   0  0  0  0  0  0  0  0  0  0  0  0
   18.6947   20.5159   21.0706 H   0  0  0  0  0  0  0  0  0  0  0  0
   20.3917   20.9959   22.3462 C   0  0  0  0  0  0  0  0  0  0  0  0
   20.7122   21.8824   21.7832 H   0  0  0  0  0  0  0  0  0  0  0  0
   20.5980   21.2137   23.4021 H   0  0  0  0  0  0  0  0  0  0  0  0
   21.2153   19.7768   21.8740 C   0  0  0  0  0  0  0  0  0  0  0  0
   20.7100   19.3368   21.0023 H   0  0  0  0  0  0  0  0  0  0  0  0
   21.3945   18.6715   22.9396 C   0  0  0  0  0  0  0  0  0  0  0  0
   21.6950   17.7538   22.4177 H   0  0  0  0  0  0  0  0  0  0  0  0
   22.2350   18.9328   23.5964 H   0  0  0  0  0  0  0  0  0  0  0  0
   20.1647   18.3584   23.8282 C   0  0  0  0  0  0  0  0  0  0  0  0
   20.3066   17.3602   24.2645 H   0  0  0  0  0  0  0  0  0  0  0  0
   20.1414   19.0510   24.6805 H   0  0  0  0  0  0  0  0  0  0  0  0
   22.5072   20.2217   21.4788 O   0  0  0  0  0  0  0  0  0  0  0  0
   22.3740   20.8649   20.7514 H   0  0  0  0  0  0  0  0  0  0  0  0
  1  2  1  0  0  0  0
  1  3  1  0  0  0  0
  1  4  1  0  0  0  0
  4  5  1  0  0  0  0
  4  6  1  0  0  0  0
  4  7  1  0  0  0  0
  7  8  1  0  0  0  0
  7  9  1  0  0  0  0
  7 10  1  0  0  0  0
 10 11  1  0  0  0  0
 10 12  1  0  0  0  0
 10 13  1  0  0  0  0
 13 14  1  0  0  0  0
 13 15  1  0  0  0  0
 15 16  1  0  0  0  0
 15 17  1  0  0  0  0
  1 18  1  0  0  0  0
 15 18  1  0  0  0  0
 18 19  1  0  0  0  0
 18 20  1  0  0  0  0
 13 21  1  0  0  0  0
 21 22  1  0  0  0  0
M  END
> <VConfSearch Rank>
170

> <Conf_Id>
144

> <Delta U+W>
-3.291

> <U+W>
3.132

> <U>
5.411

> <W>
-2.279

> <W(PB)>
-4.300

> <W(SA)>
2.021

> <Valence>
11.909

> <Coulomb>
-8.733

> <VdW>
2.236

> <VdW6>
-8.936

> <VdW12>
11.172

> <Bond>
0.223

> <Angle>
2.457

> <Pdih>
9.228

> <Idih>
0.000

> <Tether>
0.000

$$$$
VeraChem MOL file


 22 22  0  0  0  0  0  0  0  0999 V2000     
   20.1313   18.5015   21.2892 C   0  0  0  0  0  0  0  0  0  0  0  0
   20.5386   17.8960   20.4680 H   0  0  0  0  0  0  0  0  0  0  0  0
   19.0425   18.3579   21.2616 H   0  0  0  0  0  0  0  0  0  0  0  0
   20.4990   19.9798   21.0216 C   0  0  0  0  0  0  0  0  0  0  0  0
   21.5241   20.1699   21.3677 H   0  0  0  0  0  0  0  0  0  0  0  0
   20.5202   20.1499   19.9364 H   0  0  0  0  0  0  0  0  0  0  0  0
   19.5381   21.0190   21.6482 C   0  0  0  0  0  0  0  0  0  0  0  0
   18.6777   21.1589   20.9796 H   0  0  0  0  0  0  0  0  0  0  0  0
   20.0541   21.9885   21.6769 H   0  0  0  0  0  0  0  0  0  0  0  0
   19.0009   20.6918   23.0633 C   0  0  0  0  0  0  0  0  0  0  0  0
   18.6260   21.6254   23.5043 H   0  0  0  0  0  0  0  0  0  0  0  0
   18.1273   20.0332   22.9738 H   0  0  0  0  0  0  0  0  0  0  0  0
   20.0307   20.0476   24.0182 C   0  0  0  0  0  0  0  0  0  0  0  0
   21.0302   20.4561   23.8119 H   0  0  0  0  0  0  0  0  0  0  0  0
   20.0657   18.5069   23.8998 C   0  0  0  0  0  0  0  0  0  0  0  0
   20.6138   18.1004   24.7603 H   0  0  0  0  0  0  0  0  0  0  0  0
   19.0448   18.1103   23.9757 H   0  0  0  0  0  0  0  0  0  0  0  0
   20.7270   17.9619   22.6116 C   0  0  0  0  0  0  0  0  0  0  0  0
   21.8049   18.1723   22.6388 H   0  0  0  0  0  0  0  0  0  0  0  0
   20.6358   16.8672   22.6159 H   0  0  0  0  0  0  0  0  0  0  0  0
   19.6678   20.3744   25.3530 O   0  0  0  0  0  0  0  0  0  0  0  0
   18.7757   19.9968   25.4975 H   0  0  0  0  0  0  0  0  0  0  0  0
  1  2  1  0  0  0  0
  1  3  1  0  0  0  0
  1  4  1  0  0  0  0
  4  5  1  0  0  0  0
  4  6  1  0  0  0  0
  4  7  1  0  0  0  0
  7  8  1  0  0  0  0
  7  9  1  0  0  0  0
  7 10  1  0  0  0  0
 10 11  1  0  0  0  0
 10 12  1  0  0  0  0
 10 13  1  0  0  0  0
 13 14  1  0  0  0  0
 13 15  1  0  0  0  0
 15 16  1  0  0  0  0
 15 17  1  0  0  0  0
  1 18  1  0  0  0  0
 15 18  1  0  0  0  0
 18 19  1  0  0  0  0
 18 20  1  0  0  0  0
 13 21  1  0  0  0  0
 21 22  1  0  0  0  0
M  END
> <VConfSearch Rank>
171

> <Conf_Id>
76

> <Delta U+W>
-3.175

> <U+W>
3.248

> <U>
5.336

> <W>
-2.088

> <W(PB)>
-4.098

> <W(SA)>
2.010

> <Valence>
12.390

> <Coulomb>
-9.270

> <VdW>
2.216

> <VdW6>
-8.967

> <VdW12>
11.183

> <Bond>
0.218

> <Angle>
2.426

> <Pdih>
9.745

> <Idih>
0.000

> <Tether>
0.000

$$$$
VeraChem MOL file


 22 22  0  0  0  0  0  0  0  0999 V2000     
   18.7497   20.7596   23.2646 C   0  0  0  0  0  0  0  0  0  0  0  0
   18.5177   21.7456   22.8395 H   0  0  0  0  0  0  0  0  0  0  0  0
   17.9961   20.5866   24.0449 H   0  0  0  0  0  0  0  0  0  0  0  0
   20.1473   20.8338   23.9249 C   0  0  0  0  0  0  0  0  0  0  0  0
   20.8009   21.4839   23.3276 H   0  0  0  0  0  0  0  0  0  0  0  0
   20.0381   21.3384   24.8945 H   0  0  0  0  0  0  0  0  0  0  0  0
   20.8406   19.4690   24.1443 C   0  0  0  0  0  0  0  0  0  0  0  0
   20.1115   18.6984   24.4295 H   0  0  0  0  0  0  0  0  0  0  0  0
   21.5276   19.5684   24.9954 H   0  0  0  0  0  0  0  0  0  0  0  0
   21.6717   19.0142   22.9177 C   0  0  0  0  0  0  0  0  0  0  0  0
   22.3392   19.8298   22.6117 H   0  0  0  0  0  0  0  0  0  0  0  0
   22.3320   18.1933   23.2269 H   0  0  0  0  0  0  0  0  0  0  0  0
   20.8678   18.5403   21.6856 C   0  0  0  0  0  0  0  0  0  0  0  0
   21.5865   18.4322   20.8604 H   0  0  0  0  0  0  0  0  0  0  0  0
   19.7641   19.5151   21.2039 C   0  0  0  0  0  0  0  0  0  0  0  0
   20.2048   20.4955   20.9815 H   0  0  0  0  0  0  0  0  0  0  0  0
   19.3839   19.1375   20.2459 H   0  0  0  0  0  0  0  0  0  0  0  0
   18.5631   19.6808   22.1711 C   0  0  0  0  0  0  0  0  0  0  0  0
   17.6718   19.9446   21.5860 H   0  0  0  0  0  0  0  0  0  0  0  0
   18.3256   18.7193   22.6450 H   0  0  0  0  0  0  0  0  0  0  0  0
   20.3062   17.2596   21.9552 O   0  0  0  0  0  0  0  0  0  0  0  0
   19.7661   17.0219   21.1741 H   0  0  0  0  0  0  0  0  0  0  0  0
  1  2  1  0  0  0  0
  1  3  1  0  0  0  0
  1  4  1  0  0  0  0
  4  5  1  0  0  0  0
  4  6  1  0  0  0  0
  4  7  1  0  0  0  0
  7  8  1  0  0  0  0
  7  9  1  0  0  0  0
  7 10  1  0  0  0  0
 10 11  1  0  0  0  0
 10 12  1  0  0  0  0
 10 13  1  0  0  0  0
 13 14  1  0  0  0  0
 13 15  1  0  0  0  0
 15 16  1  0  0  0  0
 15 17  1  0  0  0  0
  1 18  1  0  0  0  0
 15 18  1  0  0  0  0
 18 19  1  0  0  0  0
 18 20  1  0  0  0  0
 13 21  1  0  0  0  0
 21 22  1  0  0  0  0
M  END
> <VConfSearch Rank>
172

> <Conf_Id>
95

> <Delta U+W>
-2.289

> <U+W>
4.134

> <U>
6.373

> <W>
-2.240

> <W(PB)>
-4.254

> <W(SA)>
2.015

> <Valence>
12.093

> <Coulomb>
-8.058

> <VdW>
2.339

> <VdW6>
-9.683

> <VdW12>
12.022

> <Bond>
0.268

> <Angle>
3.005

> <Pdih>
8.820

> <Idih>
0.000

> <Tether>
0.000

$$$$
VeraChem MOL file


 22 22  0  0  0  0  0  0  0  0999 V2000     
   18.7507   18.8892   21.5104 C   0  0  0  0  0  0  0  0  0  0  0  0
   17.8205   18.3622   21.7628 H   0  0  0  0  0  0  0  0  0  0  0  0
   18.7736   18.9442   20.4134 H   0  0  0  0  0  0  0  0  0  0  0  0
   19.9416   18.0275   21.9937 C   0  0  0  0  0  0  0  0  0  0  0  0
   19.6751   17.5310   22.9365 H   0  0  0  0  0  0  0  0  0  0  0  0
   20.0907   17.2170   21.2674 H   0  0  0  0  0  0  0  0  0  0  0  0
   21.2736   18.7923   22.1732 C   0  0  0  0  0  0  0  0  0  0  0  0
   21.3992   19.5525   21.3901 H   0  0  0  0  0  0  0  0  0  0  0  0
   22.0970   18.0777   22.0393 H   0  0  0  0  0  0  0  0  0  0  0  0
   21.4172   19.4196   23.5828 C   0  0  0  0  0  0  0  0  0  0  0  0
   21.2016   18.6545   24.3398 H   0  0  0  0  0  0  0  0  0  0  0  0
   22.4682   19.6953   23.7389 H   0  0  0  0  0  0  0  0  0  0  0  0
   20.5406   20.6601   23.8699 C   0  0  0  0  0  0  0  0  0  0  0  0
   20.6282   20.8689   24.9459 H   0  0  0  0  0  0  0  0  0  0  0  0
   19.0322   20.4850   23.5625 C   0  0  0  0  0  0  0  0  0  0  0  0
   18.6297   19.6376   24.1321 H   0  0  0  0  0  0  0  0  0  0  0  0
   18.5176   21.3755   23.9461 H   0  0  0  0  0  0  0  0  0  0  0  0
   18.6784   20.3338   22.0600 C   0  0  0  0  0  0  0  0  0  0  0  0
   17.6574   20.7052   21.8992 H   0  0  0  0  0  0  0  0  0  0  0  0
   19.3227   20.9874   21.4573 H   0  0  0  0  0  0  0  0  0  0  0  0
   21.0585   21.7795   23.1573 O   0  0  0  0  0  0  0  0  0  0  0  0
   22.0118   21.8337   23.3728 H   0  0  0  0  0  0  0  0  0  0  0  0
  1  2  1  0  0  0  0
  1  3  1  0  0  0  0
  1  4  1  0  0  0  0
  4  5  1  0  0  0  0
  4  6  1  0  0  0  0
  4  7  1  0  0  0  0
  7  8  1  0  0  0  0
  7  9  1  0  0  0  0
  7 10  1  0  0  0  0
 10 11  1  0  0  0  0
 10 12  1  0  0  0  0
 10 13  1  0  0  0  0
 13 14  1  0  0  0  0
 13 15  1  0  0  0  0
 15 16  1  0  0  0  0
 15 17  1  0  0  0  0
  1 18  1  0  0  0  0
 15 18  1  0  0  0  0
 18 19  1  0  0  0  0
 18 20  1  0  0  0  0
 13 21  1  0  0  0  0
 21 22  1  0  0  0  0
M  END
> <VConfSearch Rank>
173

> <Conf_Id>
41

> <Delta U+W>
-2.114

> <U+W>
4.310

> <U>
6.598

> <W>
-2.289

> <W(PB)>
-4.294

> <W(SA)>
2.005

> <Valence>
12.082

> <Coulomb>
-7.801

> <VdW>
2.317

> <VdW6>
-9.658

> <VdW12>
11.975

> <Bond>
0.267

> <Angle>
3.051

> <Pdih>
8.764

> <Idih>
0.000

> <Tether>
0.000

$$$$
VeraChem MOL file


 22 22  0  0  0  0  0  0  0  0999 V2000     
   21.1428   19.0775   21.5123 C   0  0  0  0  0  0  0  0  0  0  0  0
   21.9453   19.0089   20.7653 H   0  0  0  0  0  0  0  0  0  0  0  0
   20.8104   18.0478   21.7027 H   0  0  0  0  0  0  0  0  0  0  0  0
   19.9982   19.9172   20.9023 C   0  0  0  0  0  0  0  0  0  0  0  0
   20.3309   20.9566   20.7777 H   0  0  0  0  0  0  0  0  0  0  0  0
   19.7904   19.5442   19.8902 H   0  0  0  0  0  0  0  0  0  0  0  0
   18.6804   19.8910   21.7072 C   0  0  0  0  0  0  0  0  0  0  0  0
   18.2379   18.8875   21.6512 H   0  0  0  0  0  0  0  0  0  0  0  0
   17.9645   20.5562   21.2060 H   0  0  0  0  0  0  0  0  0  0  0  0
   18.8039   20.3350   23.1900 C   0  0  0  0  0  0  0  0  0  0  0  0
   19.3162   21.3035   23.2518 H   0  0  0  0  0  0  0  0  0  0  0  0
   17.7893   20.5118   23.5693 H   0  0  0  0  0  0  0  0  0  0  0  0
   19.4793   19.3204   24.1485 C   0  0  0  0  0  0  0  0  0  0  0  0
   19.2081   19.6233   25.1702 H   0  0  0  0  0  0  0  0  0  0  0  0
   21.0290   19.2795   24.1080 C   0  0  0  0  0  0  0  0  0  0  0  0
   21.4060   19.9275   24.9100 H   0  0  0  0  0  0  0  0  0  0  0  0
   21.3672   18.2687   24.3715 H   0  0  0  0  0  0  0  0  0  0  0  0
   21.7284   19.7091   22.7945 C   0  0  0  0  0  0  0  0  0  0  0  0
   21.7186   20.8040   22.7076 H   0  0  0  0  0  0  0  0  0  0  0  0
   22.7879   19.4295   22.8714 H   0  0  0  0  0  0  0  0  0  0  0  0
   18.9592   18.0109   23.9349 O   0  0  0  0  0  0  0  0  0  0  0  0
   19.3899   17.4253   24.5902 H   0  0  0  0  0  0  0  0  0  0  0  0
  1  2  1  0  0  0  0
  1  3  1  0  0  0  0
  1  4  1  0  0  0  0
  4  5  1  0  0  0  0
  4  6  1  0  0  0  0
  4  7  1  0  0  0  0
  7  8  1  0  0  0  0
  7  9  1  0  0  0  0
  7 10  1  0  0  0  0
 10 11  1  0  0  0  0
 10 12  1  0  0  0  0
 10 13  1  0  0  0  0
 13 14  1  0  0  0  0
 13 15  1  0  0  0  0
 15 16  1  0  0  0  0
 15 17  1  0  0  0  0
  1 18  1  0  0  0  0
 15 18  1  0  0  0  0
 18 19  1  0  0  0  0
 18 20  1  0  0  0  0
 13 21  1  0  0  0  0
 21 22  1  0  0  0  0
M  END
> <VConfSearch Rank>
174

> <Conf_Id>
104

> <Delta U+W>
-1.172

> <U+W>
5.252

> <U>
7.482

> <W>
-2.230

> <W(PB)>
-4.220

> <W(SA)>
1.990

> <Valence>
12.309

> <Coulomb>
-7.084

> <VdW>
2.258

> <VdW6>
-9.770

> <VdW12>
12.028

> <Bond>
0.284

> <Angle>
3.491

> <Pdih>
8.535

> <Idih>
0.000

> <Tether>
0.000

$$$$
VeraChem MOL file


 22 22  0  0  0  0  0  0  0  0999 V2000     
   21.3286   19.9100   23.6701 C   0  0  0  0  0  0  0  0  0  0  0  0
   20.6916   20.3927   24.4236 H   0  0  0  0  0  0  0  0  0  0  0  0
   22.3559   19.9805   24.0530 H   0  0  0  0  0  0  0  0  0  0  0  0
   21.2711   20.6735   22.3273 C   0  0  0  0  0  0  0  0  0  0  0  0
   21.9257   21.5533   22.3962 H   0  0  0  0  0  0  0  0  0  0  0  0
   21.7124   20.0526   21.5367 H   0  0  0  0  0  0  0  0  0  0  0  0
   19.8664   21.1634   21.8930 C   0  0  0  0  0  0  0  0  0  0  0  0
   19.8565   21.2656   20.7991 H   0  0  0  0  0  0  0  0  0  0  0  0
   19.7177   22.1802   22.2816 H   0  0  0  0  0  0  0  0  0  0  0  0
   18.6469   20.3104   22.3361 C   0  0  0  0  0  0  0  0  0  0  0  0
   18.4144   20.5346   23.3852 H   0  0  0  0  0  0  0  0  0  0  0  0
   17.7712   20.6508   21.7684 H   0  0  0  0  0  0  0  0  0  0  0  0
   18.7614   18.7778   22.1695 C   0  0  0  0  0  0  0  0  0  0  0  0
   17.7388   18.3748   22.1393 H   0  0  0  0  0  0  0  0  0  0  0  0
   19.4751   18.0964   23.3588 C   0  0  0  0  0  0  0  0  0  0  0  0
   18.9484   18.3629   24.2844 H   0  0  0  0  0  0  0  0  0  0  0  0
   19.3553   17.0102   23.2530 H   0  0  0  0  0  0  0  0  0  0  0  0
   20.9823   18.4083   23.5315 C   0  0  0  0  0  0  0  0  0  0  0  0
   21.3319   17.8891   24.4342 H   0  0  0  0  0  0  0  0  0  0  0  0
   21.5510   17.9699   22.7003 H   0  0  0  0  0  0  0  0  0  0  0  0
   19.4200   18.4561   20.9542 O   0  0  0  0  0  0  0  0  0  0  0  0
   20.2813   18.9144   21.0211 H   0  0  0  0  0  0  0  0  0  0  0  0
  1  2  1  0  0  0  0
  1  3  1  0  0  0  0
  1  4  1  0  0  0  0
  4  5  1  0  0  0  0
  4  6  1  0  0  0  0
  4  7  1  0  0  0  0
  7  8  1  0  0  0  0
  7  9  1  0  0  0  0
  7 10  1  0  0  0  0
 10 11  1  0  0  0  0
 10 12  1  0  0  0  0
 10 13  1  0  0  0  0
 13 14  1  0  0  0  0
 13 15  1  0  0  0  0
 15 16  1  0  0  0  0
 15 17  1  0  0  0  0
  1 18  1  0  0  0  0
 15 18  1  0  0  0  0
 18 19  1  0  0  0  0
 18 20  1  0  0  0  0
 13 21  1  0  0  0  0
 21 22  1  0  0  0  0
M  END
> <VConfSearch Rank>
175

> <Conf_Id>
99

> <Delta U+W>
-3.852

> <U+W>
2.572

> <U>
3.922

> <W>
-1.350

> <W(PB)>
-3.345

> <W(SA)>
1.995

> <Valence>
12.571

> <Coulomb>
-10.581

> <VdW>
1.932

> <VdW6>
-10.483

> <VdW12>
12.415

> <Bond>
0.268

> <Angle>
3.728

> <Pdih>
8.575

> <Idih>
0.000

> <Tether>
0.000

$$$$
VeraChem MOL file


 22 22  0  0  0  0  0  0  0  0999 V2000     
   19.5236   18.6397   21.4248 C   0  0  0  0  0  0  0  0  0  0  0  0
   19.0233   17.7405   21.0397 H   0  0  0  0  0  0  0  0  0  0  0  0
   19.7875   19.2214   20.5314 H   0  0  0  0  0  0  0  0  0  0  0  0
   20.8132   18.1864   22.1700 C   0  0  0  0  0  0  0  0  0  0  0  0
   20.8711   17.0909   22.1073 H   0  0  0  0  0  0  0  0  0  0  0  0
   21.7040   18.5478   21.6390 H   0  0  0  0  0  0  0  0  0  0  0  0
   20.9062   18.5792   23.6666 C   0  0  0  0  0  0  0  0  0  0  0  0
   21.7528   18.0409   24.1141 H   0  0  0  0  0  0  0  0  0  0  0  0
   20.0262   18.2037   24.2034 H   0  0  0  0  0  0  0  0  0  0  0  0
   21.0952   20.0929   23.9631 C   0  0  0  0  0  0  0  0  0  0  0  0
   20.7575   20.2860   24.9895 H   0  0  0  0  0  0  0  0  0  0  0  0
   22.1708   20.3142   23.9652 H   0  0  0  0  0  0  0  0  0  0  0  0
   20.4107   21.1143   23.0217 C   0  0  0  0  0  0  0  0  0  0  0  0
   20.4690   22.0941   23.5170 H   0  0  0  0  0  0  0  0  0  0  0  0
   18.9167   20.8590   22.7039 C   0  0  0  0  0  0  0  0  0  0  0  0
   18.3216   21.1429   23.5813 H   0  0  0  0  0  0  0  0  0  0  0  0
   18.6219   21.5621   21.9135 H   0  0  0  0  0  0  0  0  0  0  0  0
   18.4919   19.4282   22.2713 C   0  0  0  0  0  0  0  0  0  0  0  0
   18.2126   18.8417   23.1554 H   0  0  0  0  0  0  0  0  0  0  0  0
   17.5623   19.5144   21.6924 H   0  0  0  0  0  0  0  0  0  0  0  0
   21.1449   21.2125   21.8114 O   0  0  0  0  0  0  0  0  0  0  0  0
   21.0627   20.3232   21.4123 H   0  0  0  0  0  0  0  0  0  0  0  0
  1  2  1  0  0  0  0
  1  3  1  0  0  0  0
  1  4  1  0  0  0  0
  4  5  1  0  0  0  0
  4  6  1  0  0  0  0
  4  7  1  0  0  0  0
  7  8  1  0  0  0  0
  7  9  1  0  0  0  0
  7 10  1  0  0  0  0
 10 11  1  0  0  0  0
 10 12  1  0  0  0  0
 10 13  1  0  0  0  0
 13 14  1  0  0  0  0
 13 15  1  0  0  0  0
 15 16  1  0  0  0  0
 15 17  1  0  0  0  0
  1 18  1  0  0  0  0
 15 18  1  0  0  0  0
 18 19  1  0  0  0  0
 18 20  1  0  0  0  0
 13 21  1  0  0  0  0
 21 22  1  0  0  0  0
M  END
> <VConfSearch Rank>
176

> <Conf_Id>
98

> <Delta U+W>
0.930

> <U+W>
7.353

> <U>
8.455

> <W>
-1.102

> <W(PB)>
-3.101

> <W(SA)>
2.000

> <Valence>
15.601

> <Coulomb>
-10.573

> <VdW>
3.427

> <VdW6>
-11.360

> <VdW12>
14.787

> <Bond>
0.471

> <Angle>
5.445

> <Pdih>
9.685

> <Idih>
0.000

> <Tether>
0.000

$$$$
VeraChem MOL file


 22 22  0  0  0  0  0  0  0  0999 V2000     
   20.4565   20.7973   23.7338 C   0  0  0  0  0  0  0  0  0  0  0  0
   21.4975   20.4743   23.6043 H   0  0  0  0  0  0  0  0  0  0  0  0
   20.5109   21.6806   24.3847 H   0  0  0  0  0  0  0  0  0  0  0  0
   19.6527   19.6933   24.4668 C   0  0  0  0  0  0  0  0  0  0  0  0
   20.1371   19.5210   25.4377 H   0  0  0  0  0  0  0  0  0  0  0  0
   18.6453   20.0646   24.6988 H   0  0  0  0  0  0  0  0  0  0  0  0
   19.5374   18.3274   23.7349 C   0  0  0  0  0  0  0  0  0  0  0  0
   18.5403   18.2230   23.2878 H   0  0  0  0  0  0  0  0  0  0  0  0
   19.5946   17.5295   24.4878 H   0  0  0  0  0  0  0  0  0  0  0  0
   20.6190   18.0683   22.6530 C   0  0  0  0  0  0  0  0  0  0  0  0
   21.6117   18.2364   23.0889 H   0  0  0  0  0  0  0  0  0  0  0  0
   20.6013   17.0005   22.3963 H   0  0  0  0  0  0  0  0  0  0  0  0
   20.4869   18.9032   21.3455 C   0  0  0  0  0  0  0  0  0  0  0  0
   21.4815   19.2990   21.0943 H   0  0  0  0  0  0  0  0  0  0  0  0
   19.4935   20.0909   21.3982 C   0  0  0  0  0  0  0  0  0  0  0  0
   19.3986   20.5198   20.3921 H   0  0  0  0  0  0  0  0  0  0  0  0
   18.4909   19.7227   21.6469 H   0  0  0  0  0  0  0  0  0  0  0  0
   19.8782   21.2360   22.3679 C   0  0  0  0  0  0  0  0  0  0  0  0
   20.6165   21.8846   21.8769 H   0  0  0  0  0  0  0  0  0  0  0  0
   18.9917   21.8624   22.5363 H   0  0  0  0  0  0  0  0  0  0  0  0
   20.0613   18.0375   20.2992 O   0  0  0  0  0  0  0  0  0  0  0  0
   20.0420   18.5736   19.4792 H   0  0  0  0  0  0  0  0  0  0  0  0
  1  2  1  0  0  0  0
  1  3  1  0  0  0  0
  1  4  1  0  0  0  0
  4  5  1  0  0  0  0
  4  6  1  0  0  0  0
  4  7  1  0  0  0  0
  7  8  1  0  0  0  0
  7  9  1  0  0  0  0
  7 10  1  0  0  0  0
 10 11  1  0  0  0  0
 10 12  1  0  0  0  0
 10 13  1  0  0  0  0
 13 14  1  0  0  0  0
 13 15  1  0  0  0  0
 15 16  1  0  0  0  0
 15 17  1  0  0  0  0
  1 18  1  0  0  0  0
 15 18  1  0  0  0  0
 18 19  1  0  0  0  0
 18 20  1  0  0  0  0
 13 21  1  0  0  0  0
 21 22  1  0  0  0  0
M  END
> <VConfSearch Rank>
177

> <Conf_Id>
141

> <Delta U+W>
0.000

> <U+W>
6.423

> <U>
8.781

> <W>
-2.358

> <W(PB)>
-4.373

> <W(SA)>
2.015

> <Valence>
13.328

> <Coulomb>
-8.387

> <VdW>
3.840

> <VdW6>
-9.744

> <VdW12>
13.584

> <Bond>
0.436

> <Angle>
3.478

> <Pdih>
9.415

> <Idih>
0.000

> <Tether>
0.000

$$$$
VeraChem MOL file


 22 22  0  0  0  0  0  0  0  0999 V2000     
   19.9866   19.1647   20.9675 C   0  0  0  0  0  0  0  0  0  0  0  0
   20.2741   18.1458   21.2607 H   0  0  0  0  0  0  0  0  0  0  0  0
   19.8617   19.1428   19.8763 H   0  0  0  0  0  0  0  0  0  0  0  0
   21.1155   20.1730   21.2908 C   0  0  0  0  0  0  0  0  0  0  0  0
   21.9658   19.9717   20.6250 H   0  0  0  0  0  0  0  0  0  0  0  0
   20.7778   21.1890   21.0446 H   0  0  0  0  0  0  0  0  0  0  0  0
   21.6278   20.1439   22.7493 C   0  0  0  0  0  0  0  0  0  0  0  0
   22.3715   20.9439   22.8670 H   0  0  0  0  0  0  0  0  0  0  0  0
   22.1680   19.2041   22.9276 H   0  0  0  0  0  0  0  0  0  0  0  0
   20.5340   20.3231   23.8304 C   0  0  0  0  0  0  0  0  0  0  0  0
   21.0399   20.5157   24.7856 H   0  0  0  0  0  0  0  0  0  0  0  0
   19.9258   21.2129   23.6221 H   0  0  0  0  0  0  0  0  0  0  0  0
   19.6346   19.0758   23.9815 C   0  0  0  0  0  0  0  0  0  0  0  0
   20.2443   18.1847   23.7741 H   0  0  0  0  0  0  0  0  0  0  0  0
   18.4066   19.0523   23.0429 C   0  0  0  0  0  0  0  0  0  0  0  0
   18.0408   18.0182   23.0020 H   0  0  0  0  0  0  0  0  0  0  0  0
   17.5952   19.6409   23.4915 H   0  0  0  0  0  0  0  0  0  0  0  0
   18.6295   19.5588   21.5959 C   0  0  0  0  0  0  0  0  0  0  0  0
   17.8181   19.1638   20.9694 H   0  0  0  0  0  0  0  0  0  0  0  0
   18.5175   20.6512   21.5676 H   0  0  0  0  0  0  0  0  0  0  0  0
   19.1656   19.0086   25.3227 O   0  0  0  0  0  0  0  0  0  0  0  0
   19.9582   18.9478   25.8961 H   0  0  0  0  0  0  0  0  0  0  0  0
  1  2  1  0  0  0  0
  1  3  1  0  0  0  0
  1  4  1  0  0  0  0
  4  5  1  0  0  0  0
  4  6  1  0  0  0  0
  4  7  1  0  0  0  0
  7  8  1  0  0  0  0
  7  9  1  0  0  0  0
  7 10  1  0  0  0  0
 10 11  1  0  0  0  0
 10 12  1  0  0  0  0
 10 13  1  0  0  0  0
 13 14  1  0  0  0  0
 13 15  1  0  0  0  0
 15 16  1  0  0  0  0
 15 17  1  0  0  0  0
  1 18  1  0  0  0  0
 15 18  1  0  0  0  0
 18 19  1  0  0  0  0
 18 20  1  0  0  0  0
 13 21  1  0  0  0  0
 21 22  1  0  0  0  0
M  END
> <VConfSearch Rank>
178

> <Conf_Id>
144

> <Delta U+W>
-3.291

> <U+W>
3.132

> <U>
5.411

> <W>
-2.279

> <W(PB)>
-4.300

> <W(SA)>
2.021

> <Valence>
11.909

> <Coulomb>
-8.733

> <VdW>
2.236

> <VdW6>
-8.936

> <VdW12>
11.172

> <Bond>
0.223

> <Angle>
2.457

> <Pdih>
9.228

> <Idih>
0.000

> <Tether>
0.000

$$$$
VeraChem MOL file


 22 22  0  0  0  0  0  0  0  0999 V2000     
   18.2927   20.0877   22.7182 C   0  0  0  0  0  0  0  0  0  0  0  0
   17.2326   20.2797   22.5033 H   0  0  0  0  0  0  0  0  0  0  0  0
   18.5012   20.5766   23.6796 H   0  0  0  0  0  0  0  0  0  0  0  0
   19.1329   20.7207   21.5844 C   0  0  0  0  0  0  0  0  0  0  0  0
   19.1654   20.0349   20.7269 H   0  0  0  0  0  0  0  0  0  0  0  0
   18.6180   21.6204   21.2204 H   0  0  0  0  0  0  0  0  0  0  0  0
   20.5735   21.1240   21.9817 C   0  0  0  0  0  0  0  0  0  0  0  0
   20.5494   22.1148   22.4559 H   0  0  0  0  0  0  0  0  0  0  0  0
   21.1603   21.2483   21.0613 H   0  0  0  0  0  0  0  0  0  0  0  0
   21.3215   20.1542   22.9293 C   0  0  0  0  0  0  0  0  0  0  0  0
   22.3951   20.3748   22.8566 H   0  0  0  0  0  0  0  0  0  0  0  0
   21.0416   20.3767   23.9671 H   0  0  0  0  0  0  0  0  0  0  0  0
   21.0832   18.6539   22.6465 C   0  0  0  0  0  0  0  0  0  0  0  0
   20.9636   18.4975   21.5650 H   0  0  0  0  0  0  0  0  0  0  0  0
   19.8470   18.0997   23.3905 C   0  0  0  0  0  0  0  0  0  0  0  0
   19.8789   17.0025   23.3568 H   0  0  0  0  0  0  0  0  0  0  0  0
   19.9056   18.3724   24.4522 H   0  0  0  0  0  0  0  0  0  0  0  0
   18.4810   18.5553   22.8246 C   0  0  0  0  0  0  0  0  0  0  0  0
   18.3256   18.0993   21.8373 H   0  0  0  0  0  0  0  0  0  0  0  0
   17.6898   18.1492   23.4695 H   0  0  0  0  0  0  0  0  0  0  0  0
   22.2217   17.9289   23.0920 O   0  0  0  0  0  0  0  0  0  0  0  0
   22.2955   18.0940   24.0545 H   0  0  0  0  0  0  0  0  0  0  0  0
  1  2  1  0  0  0  0
  1  3  1  0  0  0  0
  1  4  1  0  0  0  0
  4  5  1  0  0  0  0
  4  6  1  0  0  0  0
  4  7  1  0  0  0  0
  7  8  1  0  0  0  0
  7  9  1  0  0  0  0
  7 10  1  0  0  0  0
 10 11  1  0  0  0  0
 10 12  1  0  0  0  0
 10 13  1  0  0  0  0
 13 14  1  0  0  0  0
 13 15  1  0  0  0  0
 15 16  1  0  0  0  0
 15 17  1  0  0  0  0
  1 18  1  0  0  0  0
 15 18  1  0  0  0  0
 18 19  1  0  0  0  0
 18 20  1  0  0  0  0
 13 21  1  0  0  0  0
 21 22  1  0  0  0  0
M  END
> <VConfSearch Rank>
179

> <Conf_Id>
76

> <Delta U+W>
-3.175

> <U+W>
3.248

> <U>
5.336

> <W>
-2.088

> <W(PB)>
-4.098

> <W(SA)>
2.010

> <Valence>
12.390

> <Coulomb>
-9.270

> <VdW>
2.216

> <VdW6>
-8.967

> <VdW12>
11.183

> <Bond>
0.218

> <Angle>
2.426

> <Pdih>
9.745

> <Idih>
0.000

> <Tether>
0.000

$$$$
VeraChem MOL file


 22 22  0  0  0  0  0  0  0  0999 V2000     
   18.9445   18.9966   24.0801 C   0  0  0  0  0  0  0  0  0  0  0  0
   19.0369   19.2395   25.1474 H   0  0  0  0  0  0  0  0  0  0  0  0
   18.0112   18.4251   23.9841 H   0  0  0  0  0  0  0  0  0  0  0  0
   20.1325   18.0865   23.6863 C   0  0  0  0  0  0  0  0  0  0  0  0
   21.0318   18.4004   24.2334 H   0  0  0  0  0  0  0  0  0  0  0  0
   19.9133   17.0700   24.0404 H   0  0  0  0  0  0  0  0  0  0  0  0
   20.4433   18.0348   22.1723 C   0  0  0  0  0  0  0  0  0  0  0  0
   19.5187   18.0599   21.5795 H   0  0  0  0  0  0  0  0  0  0  0  0
   20.9187   17.0689   21.9545 H   0  0  0  0  0  0  0  0  0  0  0  0
   21.4176   19.1525   21.7212 C   0  0  0  0  0  0  0  0  0  0  0  0
   22.2984   19.1494   22.3760 H   0  0  0  0  0  0  0  0  0  0  0  0
   21.7941   18.9059   20.7198 H   0  0  0  0  0  0  0  0  0  0  0  0
   20.8386   20.5848   21.6729 C   0  0  0  0  0  0  0  0  0  0  0  0
   21.6883   21.2652   21.5171 H   0  0  0  0  0  0  0  0  0  0  0  0
   20.1151   21.0472   22.9626 C   0  0  0  0  0  0  0  0  0  0  0  0
   20.7971   20.9714   23.8193 H   0  0  0  0  0  0  0  0  0  0  0  0
   19.8952   22.1170   22.8533 H   0  0  0  0  0  0  0  0  0  0  0  0
   18.7877   20.3083   23.2745 C   0  0  0  0  0  0  0  0  0  0  0  0
   18.1354   20.9804   23.8484 H   0  0  0  0  0  0  0  0  0  0  0  0
   18.2441   20.1010   22.3434 H   0  0  0  0  0  0  0  0  0  0  0  0
   19.9661   20.7014   20.5534 O   0  0  0  0  0  0  0  0  0  0  0  0
   19.5837   21.6017   20.5904 H   0  0  0  0  0  0  0  0  0  0  0  0
  1  2  1  0  0  0  0
  1  3  1  0  0  0  0
  1  4  1  0  0  0  0
  4  5  1  0  0  0  0
  4  6  1  0  0  0  0
  4  7  1  0  0  0  0
  7  8  1  0  0  0  0
  7  9  1  0  0  0  0
  7 10  1  0  0  0  0
 10 11  1  0  0  0  0
 10 12  1  0  0  0  0
 10 13  1  0  0  0  0
 13 14  1  0  0  0  0
 13 15  1  0  0  0  0
 15 16  1  0  0  0  0
 15 17  1  0  0  0  0
  1 18  1  0  0  0  0
 15 18  1  0  0  0  0
 18 19  1  0  0  0  0
 18 20  1  0  0  0  0
 13 21  1  0  0  0  0
 21 22  1  0  0  0  0
M  END
> <VConfSearch Rank>
180

> <Conf_Id>
95

> <Delta U+W>
-2.289

> <U+W>
4.134

> <U>
6.373

> <W>
-2.240

> <W(PB)>
-4.254

> <W(SA)>
2.015

> <Valence>
12.093

> <Coulomb>
-8.058

> <VdW>
2.339

> <VdW6>
-9.683

> <VdW12>
12.022

> <Bond>
0.268

> <Angle>
3.005

> <Pdih>
8.820

> <Idih>
0.000

> <Tether>
0.000

$$$$
VeraChem MOL file


 22 22  0  0  0  0  0  0  0  0999 V2000     
   18.5306   20.2960   23.6635 C   0  0  0  0  0  0  0  0  0  0  0  0
   18.3603   21.3169   24.0317 H   0  0  0  0  0  0  0  0  0  0  0  0
   17.6251   19.7308   23.9230 H   0  0  0  0  0  0  0  0  0  0  0  0
   19.7324   19.6980   24.4333 C   0  0  0  0  0  0  0  0  0  0  0  0
   20.4741   20.4857   24.6228 H   0  0  0  0  0  0  0  0  0  0  0  0
   19.3780   19.3842   25.4246 H   0  0  0  0  0  0  0  0  0  0  0  0
   20.4210   18.4977   23.7430 C   0  0  0  0  0  0  0  0  0  0  0  0
   19.6829   17.8532   23.2464 H   0  0  0  0  0  0  0  0  0  0  0  0
   20.8898   17.8807   24.5215 H   0  0  0  0  0  0  0  0  0  0  0  0
   21.5312   18.9337   22.7537 C   0  0  0  0  0  0  0  0  0  0  0  0
   22.2015   19.6429   23.2563 H   0  0  0  0  0  0  0  0  0  0  0  0
   22.1543   18.0610   22.5186 H   0  0  0  0  0  0  0  0  0  0  0  0
   21.0523   19.5624   21.4252 C   0  0  0  0  0  0  0  0  0  0  0  0
   21.9440   19.9695   20.9269 H   0  0  0  0  0  0  0  0  0  0  0  0
   20.0438   20.7289   21.5753 C   0  0  0  0  0  0  0  0  0  0  0  0
   20.4784   21.5222   22.1968 H   0  0  0  0  0  0  0  0  0  0  0  0
   19.9068   21.1693   20.5793 H   0  0  0  0  0  0  0  0  0  0  0  0
   18.6484   20.3281   22.1209 C   0  0  0  0  0  0  0  0  0  0  0  0
   17.9034   21.0398   21.7405 H   0  0  0  0  0  0  0  0  0  0  0  0
   18.3533   19.3532   21.7110 H   0  0  0  0  0  0  0  0  0  0  0  0
   20.5040   18.5455   20.5921 O   0  0  0  0  0  0  0  0  0  0  0  0
   21.1707   17.8303   20.5452 H   0  0  0  0  0  0  0  0  0  0  0  0
  1  2  1  0  0  0  0
  1  3  1  0  0  0  0
  1  4  1  0  0  0  0
  4  5  1  0  0  0  0
  4  6  1  0  0  0  0
  4  7  1  0  0  0  0
  7  8  1  0  0  0  0
  7  9  1  0  0  0  0
  7 10  1  0  0  0  0
 10 11  1  0  0  0  0
 10 12  1  0  0  0  0
 10 13  1  0  0  0  0
 13 14  1  0  0  0  0
 13 15  1  0  0  0  0
 15 16  1  0  0  0  0
 15 17  1  0  0  0  0
  1 18  1  0  0  0  0
 15 18  1  0  0  0  0
 18 19  1  0  0  0  0
 18 20  1  0  0  0  0
 13 21  1  0  0  0  0
 21 22  1  0  0  0  0
M  END
> <VConfSearch Rank>
181

> <Conf_Id>
41

> <Delta U+W>
-2.114

> <U+W>
4.310

> <U>
6.598

> <W>
-2.289

> <W(PB)>
-4.294

> <W(SA)>
2.005

> <Valence>
12.082

> <Coulomb>
-7.801

> <VdW>
2.317

> <VdW6>
-9.658

> <VdW12>
11.975

> <Bond>
0.267

> <Angle>
3.051

> <Pdih>
8.764

> <Idih>
0.000

> <Tether>
0.000

$$$$
VeraChem MOL file


 22 22  0  0  0  0  0  0  0  0999 V2000     
   21.3935   18.5145   22.8508 C   0  0  0  0  0  0  0  0  0  0  0  0
   22.1539   17.7917   23.1764 H   0  0  0  0  0  0  0  0  0  0  0  0
   21.4645   18.5639   21.7555 H   0  0  0  0  0  0  0  0  0  0  0  0
   21.7380   19.8817   23.4830 C   0  0  0  0  0  0  0  0  0  0  0  0
   21.6008   19.8283   24.5715 H   0  0  0  0  0  0  0  0  0  0  0  0
   22.8060   20.0828   23.3236 H   0  0  0  0  0  0  0  0  0  0  0  0
   20.9324   21.0730   22.9200 C   0  0  0  0  0  0  0  0  0  0  0  0
   21.2319   21.2577   21.8797 H   0  0  0  0  0  0  0  0  0  0  0  0
   21.2276   21.9735   23.4751 H   0  0  0  0  0  0  0  0  0  0  0  0
   19.3891   20.9276   23.0104 C   0  0  0  0  0  0  0  0  0  0  0  0
   19.0947   20.6665   24.0349 H   0  0  0  0  0  0  0  0  0  0  0  0
   18.9507   21.9154   22.8190 H   0  0  0  0  0  0  0  0  0  0  0  0
   18.7405   19.9383   22.0082 C   0  0  0  0  0  0  0  0  0  0  0  0
   17.6685   20.1811   21.9745 H   0  0  0  0  0  0  0  0  0  0  0  0
   18.8306   18.4366   22.3852 C   0  0  0  0  0  0  0  0  0  0  0  0
   17.8996   18.1593   22.8964 H   0  0  0  0  0  0  0  0  0  0  0  0
   18.8437   17.8371   21.4655 H   0  0  0  0  0  0  0  0  0  0  0  0
   20.0081   17.9879   23.2858 C   0  0  0  0  0  0  0  0  0  0  0  0
   19.8115   18.2753   24.3275 H   0  0  0  0  0  0  0  0  0  0  0  0
   20.0331   16.8897   23.2832 H   0  0  0  0  0  0  0  0  0  0  0  0
   19.2686   20.1367   20.6995 O   0  0  0  0  0  0  0  0  0  0  0  0
   18.7967   19.5169   20.1072 H   0  0  0  0  0  0  0  0  0  0  0  0
  1  2  1  0  0  0  0
  1  3  1  0  0  0  0
  1  4  1  0  0  0  0
  4  5  1  0  0  0  0
  4  6  1  0  0  0  0
  4  7  1  0  0  0  0
  7  8  1  0  0  0  0
  7  9  1  0  0  0  0
  7 10  1  0  0  0  0
 10 11  1  0  0  0  0
 10 12  1  0  0  0  0
 10 13  1  0  0  0  0
 13 14  1  0  0  0  0
 13 15  1  0  0  0  0
 15 16  1  0  0  0  0
 15 17  1  0  0  0  0
  1 18  1  0  0  0  0
 15 18  1  0  0  0  0
 18 19  1  0  0  0  0
 18 20  1  0  0  0  0
 13 21  1  0  0  0  0
 21 22  1  0  0  0  0
M  END
> <VConfSearch Rank>
182

> <Conf_Id>
104

> <Delta U+W>
-1.172

> <U+W>
5.252

> <U>
7.482

> <W>
-2.230

> <W(PB)>
-4.220

> <W(SA)>
1.990

> <Valence>
12.309

> <Coulomb>
-7.084

> <VdW>
2.258

> <VdW6>
-9.770

> <VdW12>
12.028

> <Bond>
0.284

> <Angle>
3.491

> <Pdih>
8.535

> <Idih>
0.000

> <Tether>
0.000

$$$$
VeraChem MOL file


 22 22  0  0  0  0  0  0  0  0999 V2000     
   21.1223   19.3153   21.4396 C   0  0  0  0  0  0  0  0  0  0  0  0
   20.4099   18.6955   20.8786 H   0  0  0  0  0  0  0  0  0  0  0  0
   22.0472   19.3241   20.8468 H   0  0  0  0  0  0  0  0  0  0  0  0
   21.4459   18.6805   22.8113 C   0  0  0  0  0  0  0  0  0  0  0  0
   22.1799   17.8768   22.6610 H   0  0  0  0  0  0  0  0  0  0  0  0
   21.9585   19.4188   23.4418 H   0  0  0  0  0  0  0  0  0  0  0  0
   20.2385   18.0800   23.5750 C   0  0  0  0  0  0  0  0  0  0  0  0
   20.4707   18.0813   24.6490 H   0  0  0  0  0  0  0  0  0  0  0  0
   20.1447   17.0209   23.2988 H   0  0  0  0  0  0  0  0  0  0  0  0
   18.8534   18.7458   23.3525 C   0  0  0  0  0  0  0  0  0  0  0  0
   18.4378   18.3990   22.3975 H   0  0  0  0  0  0  0  0  0  0  0  0
   18.1672   18.3650   24.1200 H   0  0  0  0  0  0  0  0  0  0  0  0
   18.8009   20.2905   23.3849 C   0  0  0  0  0  0  0  0  0  0  0  0
   17.7639   20.5778   23.6107 H   0  0  0  0  0  0  0  0  0  0  0  0
   19.1561   20.9318   22.0245 C   0  0  0  0  0  0  0  0  0  0  0  0
   18.4866   20.5219   21.2571 H   0  0  0  0  0  0  0  0  0  0  0  0
   18.9215   22.0029   22.0795 H   0  0  0  0  0  0  0  0  0  0  0  0
   20.6213   20.7753   21.5477 C   0  0  0  0  0  0  0  0  0  0  0  0
   20.7044   21.2426   20.5571 H   0  0  0  0  0  0  0  0  0  0  0  0
   21.2895   21.3510   22.2024 H   0  0  0  0  0  0  0  0  0  0  0  0
   19.6517   20.7971   24.4017 O   0  0  0  0  0  0  0  0  0  0  0  0
   20.5318   20.4336   24.1792 H   0  0  0  0  0  0  0  0  0  0  0  0
  1  2  1  0  0  0  0
  1  3  1  0  0  0  0
  1  4  1  0  0  0  0
  4  5  1  0  0  0  0
  4  6  1  0  0  0  0
  4  7  1  0  0  0  0
  7  8  1  0  0  0  0
  7  9  1  0  0  0  0
  7 10  1  0  0  0  0
 10 11  1  0  0  0  0
 10 12  1  0  0  0  0
 10 13  1  0  0  0  0
 13 14  1  0  0  0  0
 13 15  1  0  0  0  0
 15 16  1  0  0  0  0
 15 17  1  0  0  0  0
  1 18  1  0  0  0  0
 15 18  1  0  0  0  0
 18 19  1  0  0  0  0
 18 20  1  0  0  0  0
 13 21  1  0  0  0  0
 21 22  1  0  0  0  0
M  END
> <VConfSearch Rank>
183

> <Conf_Id>
99

> <Delta U+W>
-3.852

> <U+W>
2.572

> <U>
3.922

> <W>
-1.350

> <W(PB)>
-3.345

> <W(SA)>
1.995

> <Valence>
12.571

> <Coulomb>
-10.581

> <VdW>
1.932

> <VdW6>
-10.483

> <VdW12>
12.415

> <Bond>
0.268

> <Angle>
3.728

> <Pdih>
8.575

> <Idih>
0.000

> <Tether>
0.000

$$$$
VeraChem MOL file


 22 22  0  0  0  0  0  0  0  0999 V2000     
   20.6704   19.4407   21.1272 C   0  0  0  0  0  0  0  0  0  0  0  0
   21.4995   19.3303   20.4147 H   0  0  0  0  0  0  0  0  0  0  0  0
   19.7631   19.4364   20.5086 H   0  0  0  0  0  0  0  0  0  0  0  0
   20.8300   20.8179   21.8357 C   0  0  0  0  0  0  0  0  0  0  0  0
   21.7281   21.3035   21.4297 H   0  0  0  0  0  0  0  0  0  0  0  0
   20.0002   21.4829   21.5615 H   0  0  0  0  0  0  0  0  0  0  0  0
   20.9729   20.7752   23.3786 C   0  0  0  0  0  0  0  0  0  0  0  0
   21.2701   21.7738   23.7267 H   0  0  0  0  0  0  0  0  0  0  0  0
   21.8128   20.1257   23.6549 H   0  0  0  0  0  0  0  0  0  0  0  0
   19.7027   20.3549   24.1690 C   0  0  0  0  0  0  0  0  0  0  0  0
   20.0178   19.9872   25.1540 H   0  0  0  0  0  0  0  0  0  0  0  0
   19.1071   21.2549   24.3722 H   0  0  0  0  0  0  0  0  0  0  0  0
   18.7588   19.3048   23.5329 C   0  0  0  0  0  0  0  0  0  0  0  0
   18.0653   18.9795   24.3216 H   0  0  0  0  0  0  0  0  0  0  0  0
   19.4327   18.0284   22.9719 C   0  0  0  0  0  0  0  0  0  0  0  0
   19.7156   17.3857   23.8154 H   0  0  0  0  0  0  0  0  0  0  0  0
   18.6673   17.4649   22.4218 H   0  0  0  0  0  0  0  0  0  0  0  0
   20.6739   18.1969   22.0521 C   0  0  0  0  0  0  0  0  0  0  0  0
   21.5880   18.1889   22.6586 H   0  0  0  0  0  0  0  0  0  0  0  0
   20.7512   17.2987   21.4245 H   0  0  0  0  0  0  0  0  0  0  0  0
   17.9802   19.9178   22.5173 O   0  0  0  0  0  0  0  0  0  0  0  0
   18.6381   20.1871   21.8453 H   0  0  0  0  0  0  0  0  0  0  0  0
  1  2  1  0  0  0  0
  1  3  1  0  0  0  0
  1  4  1  0  0  0  0
  4  5  1  0  0  0  0
  4  6  1  0  0  0  0
  4  7  1  0  0  0  0
  7  8  1  0  0  0  0
  7  9  1  0  0  0  0
  7 10  1  0  0  0  0
 10 11  1  0  0  0  0
 10 12  1  0  0  0  0
 10 13  1  0  0  0  0
 13 14  1  0  0  0  0
 13 15  1  0  0  0  0
 15 16  1  0  0  0  0
 15 17  1  0  0  0  0
  1 18  1  0  0  0  0
 15 18  1  0  0  0  0
 18 19  1  0  0  0  0
 18 20  1  0  0  0  0
 13 21  1  0  0  0  0
 21 22  1  0  0  0  0
M  END
> <VConfSearch Rank>
184

> <Conf_Id>
98

> <Delta U+W>
0.930

> <U+W>
7.353

> <U>
8.455

> <W>
-1.102

> <W(PB)>
-3.101

> <W(SA)>
2.000

> <Valence>
15.601

> <Coulomb>
-10.573

> <VdW>
3.427

> <VdW6>
-11.360

> <VdW12>
14.787

> <Bond>
0.471

> <Angle>
5.445

> <Pdih>
9.685

> <Idih>
0.000

> <Tether>
0.000

$$$$
VeraChem MOL file


 22 22  0  0  0  0  0  0  0  0999 V2000     
   20.3901   21.0898   22.0280 C   0  0  0  0  0  0  0  0  0  0  0  0
   21.2457   21.1038   22.7154 H   0  0  0  0  0  0  0  0  0  0  0  0
   20.4694   22.0237   21.4551 H   0  0  0  0  0  0  0  0  0  0  0  0
   19.0680   21.1178   22.8364 C   0  0  0  0  0  0  0  0  0  0  0  0
   19.0717   22.0325   23.4447 H   0  0  0  0  0  0  0  0  0  0  0  0
   18.2183   21.2218   22.1481 H   0  0  0  0  0  0  0  0  0  0  0  0
   18.8151   19.9101   23.7809 C   0  0  0  0  0  0  0  0  0  0  0  0
   18.0807   19.2286   23.3322 H   0  0  0  0  0  0  0  0  0  0  0  0
   18.3323   20.2845   24.6938 H   0  0  0  0  0  0  0  0  0  0  0  0
   20.0841   19.1120   24.1813 C   0  0  0  0  0  0  0  0  0  0  0  0
   20.8387   19.8070   24.5700 H   0  0  0  0  0  0  0  0  0  0  0  0
   19.8310   18.4660   25.0328 H   0  0  0  0  0  0  0  0  0  0  0  0
   20.7215   18.2405   23.0596 C   0  0  0  0  0  0  0  0  0  0  0  0
   21.8073   18.4132   23.0721 H   0  0  0  0  0  0  0  0  0  0  0  0
   20.2069   18.5045   21.6223 C   0  0  0  0  0  0  0  0  0  0  0  0
   20.6364   17.7530   20.9473 H   0  0  0  0  0  0  0  0  0  0  0  0
   19.1237   18.3383   21.5817 H   0  0  0  0  0  0  0  0  0  0  0  0
   20.5364   19.9040   21.0456 C   0  0  0  0  0  0  0  0  0  0  0  0
   21.5678   19.8988   20.6676 H   0  0  0  0  0  0  0  0  0  0  0  0
   19.8958   20.0797   20.1707 H   0  0  0  0  0  0  0  0  0  0  0  0
   20.4727   16.8712   23.3566 O   0  0  0  0  0  0  0  0  0  0  0  0
   20.9318   16.3449   22.6693 H   0  0  0  0  0  0  0  0  0  0  0  0
  1  2  1  0  0  0  0
  1  3  1  0  0  0  0
  1  4  1  0  0  0  0
  4  5  1  0  0  0  0
  4  6  1  0  0  0  0
  4  7  1  0  0  0  0
  7  8  1  0  0  0  0
  7  9  1  0  0  0  0
  7 10  1  0  0  0  0
 10 11  1  0  0  0  0
 10 12  1  0  0  0  0
 10 13  1  0  0  0  0
 13 14  1  0  0  0  0
 13 15  1  0  0  0  0
 15 16  1  0  0  0  0
 15 17  1  0  0  0  0
  1 18  1  0  0  0  0
 15 18  1  0  0  0  0
 18 19  1  0  0  0  0
 18 20  1  0  0  0  0
 13 21  1  0  0  0  0
 21 22  1  0  0  0  0
M  END
> <VConfSearch Rank>
185

> <Conf_Id>
141

> <Delta U+W>
0.000

> <U+W>
6.423

> <U>
8.781

> <W>
-2.358

> <W(PB)>
-4.373

> <W(SA)>
2.015

> <Valence>
13.328

> <Coulomb>
-8.387

> <VdW>
3.840

> <VdW6>
-9.744

> <VdW12>
13.584

> <Bond>
0.436

> <Angle>
3.478

> <Pdih>
9.415

> <Idih>
0.000

> <Tether>
0.000

$$$$
VeraChem MOL file


 22 22  0  0  0  0  0  0  0  0999 V2000     
   21.6967   19.9653   22.6237 C   0  0  0  0  0  0  0  0  0  0  0  0
   21.7004   19.9405   23.7218 H   0  0  0  0  0  0  0  0  0  0  0  0
   22.7393   20.1322   22.3202 H   0  0  0  0  0  0  0  0  0  0  0  0
   20.8587   21.1565   22.0997 C   0  0  0  0  0  0  0  0  0  0  0  0
   21.3817   22.0894   22.3506 H   0  0  0  0  0  0  0  0  0  0  0  0
   20.8218   21.1209   21.0023 H   0  0  0  0  0  0  0  0  0  0  0  0
   19.4193   21.2457   22.6570 C   0  0  0  0  0  0  0  0  0  0  0  0
   18.9118   22.0846   22.1616 H   0  0  0  0  0  0  0  0  0  0  0  0
   19.4566   21.5059   23.7237 H   0  0  0  0  0  0  0  0  0  0  0  0
   18.5641   19.9691   22.4671 C   0  0  0  0  0  0  0  0  0  0  0  0
   17.5209   20.2329   22.6854 H   0  0  0  0  0  0  0  0  0  0  0  0
   18.5837   19.6421   21.4194 H   0  0  0  0  0  0  0  0  0  0  0  0
   18.9964   18.8171   23.4018 C   0  0  0  0  0  0  0  0  0  0  0  0
   19.3625   19.2552   24.3414 H   0  0  0  0  0  0  0  0  0  0  0  0
   20.1050   17.9059   22.8273 C   0  0  0  0  0  0  0  0  0  0  0  0
   20.5462   17.3520   23.6660 H   0  0  0  0  0  0  0  0  0  0  0  0
   19.6510   17.1496   22.1731 H   0  0  0  0  0  0  0  0  0  0  0  0
   21.2413   18.6068   22.0414 C   0  0  0  0  0  0  0  0  0  0  0  0
   22.1025   17.9254   22.0099 H   0  0  0  0  0  0  0  0  0  0  0  0
   20.9352   18.7421   20.9952 H   0  0  0  0  0  0  0  0  0  0  0  0
   17.8624   18.0065   23.6850 O   0  0  0  0  0  0  0  0  0  0  0  0
   17.2014   18.5869   24.1173 H   0  0  0  0  0  0  0  0  0  0  0  0
  1  2  1  0  0  0  0
  1  3  1  0  0  0  0
  1  4  1  0  0  0  0
  4  5  1  0  0  0  0
  4  6  1  0  0  0  0
  4  7  1  0  0  0  0
  7  8  1  0  0  0  0
  7  9  1  0  0  0  0
  7 10  1  0  0  0  0
 10 11  1  0  0  0  0
 10 12  1  0  0  0  0
 10 13  1  0  0  0  0
 13 14  1  0  0  0  0
 13 15  1  0  0  0  0
 15 16  1  0  0  0  0
 15 17  1  0  0  0  0
  1 18  1  0  0  0  0
 15 18  1  0  0  0  0
 18 19  1  0  0  0  0
 18 20  1  0  0  0  0
 13 21  1  0  0  0  0
 21 22  1  0  0  0  0
M  END
> <VConfSearch Rank>
186

> <Conf_Id>
144

> <Delta U+W>
-3.291

> <U+W>
3.132

> <U>
5.411

> <W>
-2.279

> <W(PB)>
-4.300

> <W(SA)>
2.021

> <Valence>
11.909

> <Coulomb>
-8.733

> <VdW>
2.236

> <VdW6>
-8.936

> <VdW12>
11.172

> <Bond>
0.223

> <Angle>
2.457

> <Pdih>
9.228

> <Idih>
0.000

> <Tether>
0.000

$$$$
VeraChem MOL file


 22 22  0  0  0  0  0  0  0  0999 V2000     
   19.3386   18.9020   24.1426 C   0  0  0  0  0  0  0  0  0  0  0  0
   19.2414   18.4152   25.1226 H   0  0  0  0  0  0  0  0  0  0  0  0
   18.3323   19.2533   23.8766 H   0  0  0  0  0  0  0  0  0  0  0  0
   19.8383   17.8444   23.1307 C   0  0  0  0  0  0  0  0  0  0  0  0
   20.9298   17.7494   23.2103 H   0  0  0  0  0  0  0  0  0  0  0  0
   19.4374   16.8622   23.4161 H   0  0  0  0  0  0  0  0  0  0  0  0
   19.4462   18.1093   21.6569 C   0  0  0  0  0  0  0  0  0  0  0  0
   18.4300   17.7293   21.4837 H   0  0  0  0  0  0  0  0  0  0  0  0
   20.1032   17.5071   21.0144 H   0  0  0  0  0  0  0  0  0  0  0  0
   19.4960   19.5841   21.1875 C   0  0  0  0  0  0  0  0  0  0  0  0
   19.5267   19.5862   20.0895 H   0  0  0  0  0  0  0  0  0  0  0  0
   18.5559   20.0810   21.4599 H   0  0  0  0  0  0  0  0  0  0  0  0
   20.6849   20.4032   21.7381 C   0  0  0  0  0  0  0  0  0  0  0  0
   21.5654   19.7527   21.8382 H   0  0  0  0  0  0  0  0  0  0  0  0
   20.3699   21.0628   23.1000 C   0  0  0  0  0  0  0  0  0  0  0  0
   21.1373   21.8198   23.3100 H   0  0  0  0  0  0  0  0  0  0  0  0
   19.4184   21.6060   23.0326 H   0  0  0  0  0  0  0  0  0  0  0  0
   20.3153   20.0916   24.3031 C   0  0  0  0  0  0  0  0  0  0  0  0
   21.3246   19.7097   24.5088 H   0  0  0  0  0  0  0  0  0  0  0  0
   20.0252   20.6651   25.1941 H   0  0  0  0  0  0  0  0  0  0  0  0
   20.9820   21.4383   20.8104 O   0  0  0  0  0  0  0  0  0  0  0  0
   20.1772   21.9928   20.7474 H   0  0  0  0  0  0  0  0  0  0  0  0
  1  2  1  0  0  0  0
  1  3  1  0  0  0  0
  1  4  1  0  0  0  0
  4  5  1  0  0  0  0
  4  6  1  0  0  0  0
  4  7  1  0  0  0  0
  7  8  1  0  0  0  0
  7  9  1  0  0  0  0
  7 10  1  0  0  0  0
 10 11  1  0  0  0  0
 10 12  1  0  0  0  0
 10 13  1  0  0  0  0
 13 14  1  0  0  0  0
 13 15  1  0  0  0  0
 15 16  1  0  0  0  0
 15 17  1  0  0  0  0
  1 18  1  0  0  0  0
 15 18  1  0  0  0  0
 18 19  1  0  0  0  0
 18 20  1  0  0  0  0
 13 21  1  0  0  0  0
 21 22  1  0  0  0  0
M  END
> <VConfSearch Rank>
187

> <Conf_Id>
76

> <Delta U+W>
-3.175

> <U+W>
3.248

> <U>
5.336

> <W>
-2.088

> <W(PB)>
-4.098

> <W(SA)>
2.010

> <Valence>
12.390

> <Coulomb>
-9.270

> <VdW>
2.216

> <VdW6>
-8.967

> <VdW12>
11.183

> <Bond>
0.218

> <Angle>
2.426

> <Pdih>
9.745

> <Idih>
0.000

> <Tether>
0.000

$$$$
VeraChem MOL file


 22 22  0  0  0  0  0  0  0  0999 V2000     
   21.1887   21.0462   22.9048 C   0  0  0  0  0  0  0  0  0  0  0  0
   20.8988   22.1054   22.8770 H   0  0  0  0  0  0  0  0  0  0  0  0
   22.2553   21.0358   23.1678 H   0  0  0  0  0  0  0  0  0  0  0  0
   21.0172   20.4600   21.4830 C   0  0  0  0  0  0  0  0  0  0  0  0
   20.1349   20.9077   21.0059 H   0  0  0  0  0  0  0  0  0  0  0  0
   21.8744   20.7833   20.8769 H   0  0  0  0  0  0  0  0  0  0  0  0
   20.9099   18.9186   21.4192 C   0  0  0  0  0  0  0  0  0  0  0  0
   21.5721   18.4471   22.1582 H   0  0  0  0  0  0  0  0  0  0  0  0
   21.2707   18.5920   20.4346 H   0  0  0  0  0  0  0  0  0  0  0  0
   19.4544   18.4112   21.5805 C   0  0  0  0  0  0  0  0  0  0  0  0
   18.8045   18.9509   20.8798 H   0  0  0  0  0  0  0  0  0  0  0  0
   19.4137   17.3591   21.2693 H   0  0  0  0  0  0  0  0  0  0  0  0
   18.8491   18.5120   22.9991 C   0  0  0  0  0  0  0  0  0  0  0  0
   17.7766   18.2891   22.9028 H   0  0  0  0  0  0  0  0  0  0  0  0
   18.9668   19.9043   23.6685 C   0  0  0  0  0  0  0  0  0  0  0  0
   18.4983   20.6647   23.0305 H   0  0  0  0  0  0  0  0  0  0  0  0
   18.3687   19.8809   24.5886 H   0  0  0  0  0  0  0  0  0  0  0  0
   20.4092   20.3379   24.0383 C   0  0  0  0  0  0  0  0  0  0  0  0
   20.3635   21.0235   24.8953 H   0  0  0  0  0  0  0  0  0  0  0  0
   20.9847   19.4715   24.3898 H   0  0  0  0  0  0  0  0  0  0  0  0
   19.4358   17.5171   23.8320 O   0  0  0  0  0  0  0  0  0  0  0  0
   19.0650   17.6495   24.7283 H   0  0  0  0  0  0  0  0  0  0  0  0
  1  2  1  0  0  0  0
  1  3  1  0  0  0  0
  1  4  1  0  0  0  0
  4  5  1  0  0  0  0
  4  6  1  0  0  0  0
  4  7  1  0  0  0  0
  7  8  1  0  0  0  0
  7  9  1  0  0  0  0
  7 10  1  0  0  0  0
 10 11  1  0  0  0  0
 10 12  1  0  0  0  0
 10 13  1  0  0  0  0
 13 14  1  0  0  0  0
 13 15  1  0  0  0  0
 15 16  1  0  0  0  0
 15 17  1  0  0  0  0
  1 18  1  0  0  0  0
 15 18  1  0  0  0  0
 18 19  1  0  0  0  0
 18 20  1  0  0  0  0
 13 21  1  0  0  0  0
 21 22  1  0  0  0  0
M  END
> <VConfSearch Rank>
188

> <Conf_Id>
95

> <Delta U+W>
-2.289

> <U+W>
4.134

> <U>
6.373

> <W>
-2.240

> <W(PB)>
-4.254

> <W(SA)>
2.015

> <Valence>
12.093

> <Coulomb>
-8.058

> <VdW>
2.339

> <VdW6>
-9.683

> <VdW12>
12.022

> <Bond>
0.268

> <Angle>
3.005

> <Pdih>
8.820

> <Idih>
0.000

> <Tether>
0.000

$$$$
VeraChem MOL file


 22 22  0  0  0  0  0  0  0  0999 V2000     
   20.2174   21.4932   23.0903 C   0  0  0  0  0  0  0  0  0  0  0  0
   21.1262   22.1092   23.0535 H   0  0  0  0  0  0  0  0  0  0  0  0
   19.4027   22.1797   23.3579 H   0  0  0  0  0  0  0  0  0  0  0  0
   20.3852   20.4501   24.2208 C   0  0  0  0  0  0  0  0  0  0  0  0
   21.4324   20.1214   24.2629 H   0  0  0  0  0  0  0  0  0  0  0  0
   20.1976   20.9546   25.1785 H   0  0  0  0  0  0  0  0  0  0  0  0
   19.4615   19.2144   24.1149 C   0  0  0  0  0  0  0  0  0  0  0  0
   18.4679   19.4971   23.7413 H   0  0  0  0  0  0  0  0  0  0  0  0
   19.3054   18.8185   25.1274 H   0  0  0  0  0  0  0  0  0  0  0  0
   20.0756   18.0814   23.2543 C   0  0  0  0  0  0  0  0  0  0  0  0
   21.0987   17.8831   23.5991 H   0  0  0  0  0  0  0  0  0  0  0  0
   19.5194   17.1546   23.4455 H   0  0  0  0  0  0  0  0  0  0  0  0
   20.1066   18.3247   21.7280 C   0  0  0  0  0  0  0  0  0  0  0  0
   20.7203   17.5237   21.2911 H   0  0  0  0  0  0  0  0  0  0  0  0
   20.7369   19.6703   21.2890 C   0  0  0  0  0  0  0  0  0  0  0  0
   21.7624   19.7464   21.6725 H   0  0  0  0  0  0  0  0  0  0  0  0
   20.8268   19.6447   20.1954 H   0  0  0  0  0  0  0  0  0  0  0  0
   19.9274   20.9352   21.6764 C   0  0  0  0  0  0  0  0  0  0  0  0
   20.1447   21.7292   20.9494 H   0  0  0  0  0  0  0  0  0  0  0  0
   18.8524   20.7359   21.5750 H   0  0  0  0  0  0  0  0  0  0  0  0
   18.7871   18.2084   21.2044 O   0  0  0  0  0  0  0  0  0  0  0  0
   18.4318   17.3541   21.5239 H   0  0  0  0  0  0  0  0  0  0  0  0
  1  2  1  0  0  0  0
  1  3  1  0  0  0  0
  1  4  1  0  0  0  0
  4  5  1  0  0  0  0
  4  6  1  0  0  0  0
  4  7  1  0  0  0  0
  7  8  1  0  0  0  0
  7  9  1  0  0  0  0
  7 10  1  0  0  0  0
 10 11  1  0  0  0  0
 10 12  1  0  0  0  0
 10 13  1  0  0  0  0
 13 14  1  0  0  0  0
 13 15  1  0  0  0  0
 15 16  1  0  0  0  0
 15 17  1  0  0  0  0
  1 18  1  0  0  0  0
 15 18  1  0  0  0  0
 18 19  1  0  0  0  0
 18 20  1  0  0  0  0
 13 21  1  0  0  0  0
 21 22  1  0  0  0  0
M  END
> <VConfSearch Rank>
189

> <Conf_Id>
41

> <Delta U+W>
-2.114

> <U+W>
4.310

> <U>
6.598

> <W>
-2.289

> <W(PB)>
-4.294

> <W(SA)>
2.005

> <Valence>
12.082

> <Coulomb>
-7.801

> <VdW>
2.317

> <VdW6>
-9.658

> <VdW12>
11.975

> <Bond>
0.267

> <Angle>
3.051

> <Pdih>
8.764

> <Idih>
0.000

> <Tether>
0.000

$$$$
VeraChem MOL file


 22 22  0  0  0  0  0  0  0  0999 V2000     
   19.9465   18.8014   24.2033 C   0  0  0  0  0  0  0  0  0  0  0  0
   20.1162   18.3239   25.1779 H   0  0  0  0  0  0  0  0  0  0  0  0
   18.9093   19.1637   24.2142 H   0  0  0  0  0  0  0  0  0  0  0  0
   20.1385   17.7270   23.1095 C   0  0  0  0  0  0  0  0  0  0  0  0
   21.1936   17.4237   23.0734 H   0  0  0  0  0  0  0  0  0  0  0  0
   19.5765   16.8284   23.3980 H   0  0  0  0  0  0  0  0  0  0  0  0
   19.6766   18.1540   21.6990 C   0  0  0  0  0  0  0  0  0  0  0  0
   18.5829   18.2522   21.6867 H   0  0  0  0  0  0  0  0  0  0  0  0
   19.9059   17.3340   21.0053 H   0  0  0  0  0  0  0  0  0  0  0  0
   20.3324   19.4519   21.1546 C   0  0  0  0  0  0  0  0  0  0  0  0
   21.4246   19.3858   21.2383 H   0  0  0  0  0  0  0  0  0  0  0  0
   20.1204   19.5052   20.0791 H   0  0  0  0  0  0  0  0  0  0  0  0
   19.8359   20.7790   21.7841 C   0  0  0  0  0  0  0  0  0  0  0  0
   20.1364   21.5849   21.0988 H   0  0  0  0  0  0  0  0  0  0  0  0
   20.4402   21.1405   23.1658 C   0  0  0  0  0  0  0  0  0  0  0  0
   21.2906   21.8140   22.9978 H   0  0  0  0  0  0  0  0  0  0  0  0
   19.7101   21.7341   23.7315 H   0  0  0  0  0  0  0  0  0  0  0  0
   20.9359   19.9793   24.0630 C   0  0  0  0  0  0  0  0  0  0  0  0
   21.9031   19.6107   23.6955 H   0  0  0  0  0  0  0  0  0  0  0  0
   21.1375   20.3894   25.0619 H   0  0  0  0  0  0  0  0  0  0  0  0
   18.4131   20.7905   21.8651 O   0  0  0  0  0  0  0  0  0  0  0  0
   18.1577   21.6619   22.2301 H   0  0  0  0  0  0  0  0  0  0  0  0
  1  2  1  0  0  0  0
  1  3  1  0  0  0  0
  1  4  1  0  0  0  0
  4  5  1  0  0  0  0
  4  6  1  0  0  0  0
  4  7  1  0  0  0  0
  7  8  1  0  0  0  0
  7  9  1  0  0  0  0
  7 10  1  0  0  0  0
 10 11  1  0  0  0  0
 10 12  1  0  0  0  0
 10 13  1  0  0  0  0
 13 14  1  0  0  0  0
 13 15  1  0  0  0  0
 15 16  1  0  0  0  0
 15 17  1  0  0  0  0
  1 18  1  0  0  0  0
 15 18  1  0  0  0  0
 18 19  1  0  0  0  0
 18 20  1  0  0  0  0
 13 21  1  0  0  0  0
 21 22  1  0  0  0  0
M  END
> <VConfSearch Rank>
190

> <Conf_Id>
104

> <Delta U+W>
-1.172

> <U+W>
5.252

> <U>
7.482

> <W>
-2.230

> <W(PB)>
-4.220

> <W(SA)>
1.990

> <Valence>
12.309

> <Coulomb>
-7.084

> <VdW>
2.258

> <VdW6>
-9.770

> <VdW12>
12.028

> <Bond>
0.284

> <Angle>
3.491

> <Pdih>
8.535

> <Idih>
0.000

> <Tether>
0.000

$$$$
VeraChem MOL file


 22 22  0  0  0  0  0  0  0  0999 V2000     
   21.3534   18.6190   22.9923 C   0  0  0  0  0  0  0  0  0  0  0  0
   22.0709   19.4489   22.9394 H   0  0  0  0  0  0  0  0  0  0  0  0
   21.9484   17.7174   23.1924 H   0  0  0  0  0  0  0  0  0  0  0  0
   20.6367   18.4213   21.6371 C   0  0  0  0  0  0  0  0  0  0  0  0
   21.3073   17.8703   20.9632 H   0  0  0  0  0  0  0  0  0  0  0  0
   19.7702   17.7618   21.7767 H   0  0  0  0  0  0  0  0  0  0  0  0
   20.2017   19.7199   20.9118 C   0  0  0  0  0  0  0  0  0  0  0  0
   19.3558   19.4830   20.2518 H   0  0  0  0  0  0  0  0  0  0  0  0
   21.0146   20.0327   20.2422 H   0  0  0  0  0  0  0  0  0  0  0  0
   19.8304   20.9397   21.7980 C   0  0  0  0  0  0  0  0  0  0  0  0
   20.7518   21.4263   22.1431 H   0  0  0  0  0  0  0  0  0  0  0  0
   19.3339   21.6829   21.1607 H   0  0  0  0  0  0  0  0  0  0  0  0
   18.9226   20.6719   23.0204 C   0  0  0  0  0  0  0  0  0  0  0  0
   18.4446   21.6253   23.2878 H   0  0  0  0  0  0  0  0  0  0  0  0
   19.7124   20.2040   24.2636 C   0  0  0  0  0  0  0  0  0  0  0  0
   20.4846   20.9504   24.4909 H   0  0  0  0  0  0  0  0  0  0  0  0
   19.0313   20.2119   25.1246 H   0  0  0  0  0  0  0  0  0  0  0  0
   20.3751   18.8069   24.1762 C   0  0  0  0  0  0  0  0  0  0  0  0
   20.9278   18.6379   25.1104 H   0  0  0  0  0  0  0  0  0  0  0  0
   19.6006   18.0285   24.1468 H   0  0  0  0  0  0  0  0  0  0  0  0
   17.9155   19.7260   22.6959 O   0  0  0  0  0  0  0  0  0  0  0  0
   18.4141   18.9418   22.3914 H   0  0  0  0  0  0  0  0  0  0  0  0
  1  2  1  0  0  0  0
  1  3  1  0  0  0  0
  1  4  1  0  0  0  0
  4  5  1  0  0  0  0
  4  6  1  0  0  0  0
  4  7  1  0  0  0  0
  7  8  1  0  0  0  0
  7  9  1  0  0  0  0
  7 10  1  0  0  0  0
 10 11  1  0  0  0  0
 10 12  1  0  0  0  0
 10 13  1  0  0  0  0
 13 14  1  0  0  0  0
 13 15  1  0  0  0  0
 15 16  1  0  0  0  0
 15 17  1  0  0  0  0
  1 18  1  0  0  0  0
 15 18  1  0  0  0  0
 18 19  1  0  0  0  0
 18 20  1  0  0  0  0
 13 21  1  0  0  0  0
 21 22  1  0  0  0  0
M  END
> <VConfSearch Rank>
191

> <Conf_Id>
99

> <Delta U+W>
-3.852

> <U+W>
2.572

> <U>
3.922

> <W>
-1.350

> <W(PB)>
-3.345

> <W(SA)>
1.995

> <Valence>
12.571

> <Coulomb>
-10.581

> <VdW>
1.932

> <VdW6>
-10.483

> <VdW12>
12.415

> <Bond>
0.268

> <Angle>
3.728

> <Pdih>
8.575

> <Idih>
0.000

> <Tether>
0.000

$$$$
VeraChem MOL file


 22 22  0  0  0  0  0  0  0  0999 V2000     
   21.2137   20.6261   22.0333 C   0  0  0  0  0  0  0  0  0  0  0  0
   21.9516   20.8973   21.2657 H   0  0  0  0  0  0  0  0  0  0  0  0
   21.2088   21.4727   22.7328 H   0  0  0  0  0  0  0  0  0  0  0  0
   21.7213   19.3407   22.7504 C   0  0  0  0  0  0  0  0  0  0  0  0
   22.6789   19.0557   22.2932 H   0  0  0  0  0  0  0  0  0  0  0  0
   21.9628   19.5625   23.7985 H   0  0  0  0  0  0  0  0  0  0  0  0
   20.7813   18.1099   22.6837 C   0  0  0  0  0  0  0  0  0  0  0  0
   21.3325   17.2329   23.0494 H   0  0  0  0  0  0  0  0  0  0  0  0
   20.5527   17.8749   21.6367 H   0  0  0  0  0  0  0  0  0  0  0  0
   19.4619   18.2155   23.4977 C   0  0  0  0  0  0  0  0  0  0  0  0
   18.7398   17.5057   23.0739 H   0  0  0  0  0  0  0  0  0  0  0  0
   19.6546   17.8585   24.5183 H   0  0  0  0  0  0  0  0  0  0  0  0
   18.7794   19.6011   23.6093 C   0  0  0  0  0  0  0  0  0  0  0  0
   17.7719   19.4292   24.0143 H   0  0  0  0  0  0  0  0  0  0  0  0
   18.6045   20.3872   22.2866 C   0  0  0  0  0  0  0  0  0  0  0  0
   17.7809   19.9343   21.7198 H   0  0  0  0  0  0  0  0  0  0  0  0
   18.2580   21.3967   22.5452 H   0  0  0  0  0  0  0  0  0  0  0  0
   19.8310   20.5165   21.3413 C   0  0  0  0  0  0  0  0  0  0  0  0
   19.8387   19.6826   20.6285 H   0  0  0  0  0  0  0  0  0  0  0  0
   19.6832   21.4098   20.7194 H   0  0  0  0  0  0  0  0  0  0  0  0
   19.4779   20.4014   24.5500 O   0  0  0  0  0  0  0  0  0  0  0  0
   20.3604   20.5248   24.1463 H   0  0  0  0  0  0  0  0  0  0  0  0
  1  2  1  0  0  0  0
  1  3  1  0  0  0  0
  1  4  1  0  0  0  0
  4  5  1  0  0  0  0
  4  6  1  0  0  0  0
  4  7  1  0  0  0  0
  7  8  1  0  0  0  0
  7  9  1  0  0  0  0
  7 10  1  0  0  0  0
 10 11  1  0  0  0  0
 10 12  1  0  0  0  0
 10 13  1  0  0  0  0
 13 14  1  0  0  0  0
 13 15  1  0  0  0  0
 15 16  1  0  0  0  0
 15 17  1  0  0  0  0
  1 18  1  0  0  0  0
 15 18  1  0  0  0  0
 18 19  1  0  0  0  0
 18 20  1  0  0  0  0
 13 21  1  0  0  0  0
 21 22  1  0  0  0  0
M  END
> <VConfSearch Rank>
192

> <Conf_Id>
98

> <Delta U+W>
0.930

> <U+W>
7.353

> <U>
8.455

> <W>
-1.102

> <W(PB)>
-3.101

> <W(SA)>
2.000

> <Valence>
15.601

> <Coulomb>
-10.573

> <VdW>
3.427

> <VdW6>
-11.360

> <VdW12>
14.787

> <Bond>
0.471

> <Angle>
5.445

> <Pdih>
9.685

> <Idih>
0.000

> <Tether>
0.000

$$$$
VeraChem MOL file


 22 22  0  0  0  0  0  0  0  0999 V2000     
   19.6926   20.8063   23.7644 C   0  0  0  0  0  0  0  0  0  0  0  0
   18.9024   21.1350   23.0771 H   0  0  0  0  0  0  0  0  0  0  0  0
   19.6262   21.4890   24.6225 H   0  0  0  0  0  0  0  0  0  0  0  0
   21.0785   20.9887   23.0951 C   0  0  0  0  0  0  0  0  0  0  0  0
   21.1881   22.0531   22.8464 H   0  0  0  0  0  0  0  0  0  0  0  0
   21.8706   20.7705   23.8242 H   0  0  0  0  0  0  0  0  0  0  0  0
   21.3315   20.1621   21.8038 C   0  0  0  0  0  0  0  0  0  0  0  0
   21.9774   19.3031   22.0273 H   0  0  0  0  0  0  0  0  0  0  0  0
   21.9151   20.7816   21.1094 H   0  0  0  0  0  0  0  0  0  0  0  0
   20.0516   19.6714   21.0765 C   0  0  0  0  0  0  0  0  0  0  0  0
   19.3813   20.5243   20.9127 H   0  0  0  0  0  0  0  0  0  0  0  0
   20.3341   19.3376   20.0689 H   0  0  0  0  0  0  0  0  0  0  0  0
   19.2633   18.5298   21.7831 C   0  0  0  0  0  0  0  0  0  0  0  0
   18.1964   18.7958   21.7689 H   0  0  0  0  0  0  0  0  0  0  0  0
   19.6680   18.2343   23.2490 C   0  0  0  0  0  0  0  0  0  0  0  0
   19.1328   17.3394   23.5921 H   0  0  0  0  0  0  0  0  0  0  0  0
   20.7302   17.9650   23.2915 H   0  0  0  0  0  0  0  0  0  0  0  0
   19.3835   19.3738   24.2592 C   0  0  0  0  0  0  0  0  0  0  0  0
   18.3251   19.3340   24.5510 H   0  0  0  0  0  0  0  0  0  0  0  0
   19.9563   19.1776   25.1758 H   0  0  0  0  0  0  0  0  0  0  0  0
   19.4454   17.3297   21.0403 O   0  0  0  0  0  0  0  0  0  0  0  0
   18.8947   16.6438   21.4720 H   0  0  0  0  0  0  0  0  0  0  0  0
  1  2  1  0  0  0  0
  1  3  1  0  0  0  0
  1  4  1  0  0  0  0
  4  5  1  0  0  0  0
  4  6  1  0  0  0  0
  4  7  1  0  0  0  0
  7  8  1  0  0  0  0
  7  9  1  0  0  0  0
  7 10  1  0  0  0  0
 10 11  1  0  0  0  0
 10 12  1  0  0  0  0
 10 13  1  0  0  0  0
 13 14  1  0  0  0  0
 13 15  1  0  0  0  0
 15 16  1  0  0  0  0
 15 17  1  0  0  0  0
  1 18  1  0  0  0  0
 15 18  1  0  0  0  0
 18 19  1  0  0  0  0
 18 20  1  0  0  0  0
 13 21  1  0  0  0  0
 21 22  1  0  0  0  0
M  END
> <VConfSearch Rank>
193

> <Conf_Id>
141

> <Delta U+W>
0.000

> <U+W>
6.423

> <U>
8.781

> <W>
-2.358

> <W(PB)>
-4.373

> <W(SA)>
2.015

> <Valence>
13.328

> <Coulomb>
-8.387

> <VdW>
3.840

> <VdW6>
-9.744

> <VdW12>
13.584

> <Bond>
0.436

> <Angle>
3.478

> <Pdih>
9.415

> <Idih>
0.000

> <Tether>
0.000

$$$$
VeraChem MOL file


 22 22  0  0  0  0  0  0  0  0999 V2000     
   20.8951   21.0230   23.1430 C   0  0  0  0  0  0  0  0  0  0  0  0
   21.1679   21.1791   22.0905 H   0  0  0  0  0  0  0  0  0  0  0  0
   21.3301   21.8657   23.6977 H   0  0  0  0  0  0  0  0  0  0  0  0
   21.5292   19.7222   23.6921 C   0  0  0  0  0  0  0  0  0  0  0  0
   22.6171   19.8619   23.7531 H   0  0  0  0  0  0  0  0  0  0  0  0
   21.1908   19.5598   24.7246 H   0  0  0  0  0  0  0  0  0  0  0  0
   21.2525   18.4505   22.8575 C   0  0  0  0  0  0  0  0  0  0  0  0
   21.6943   17.5930   23.3832 H   0  0  0  0  0  0  0  0  0  0  0  0
   21.7843   18.5204   21.8987 H   0  0  0  0  0  0  0  0  0  0  0  0
   19.7558   18.1523   22.5964 C   0  0  0  0  0  0  0  0  0  0  0  0
   19.6843   17.1279   22.2080 H   0  0  0  0  0  0  0  0  0  0  0  0
   19.1891   18.1629   23.5364 H   0  0  0  0  0  0  0  0  0  0  0  0
   19.1241   19.1222   21.5727 C   0  0  0  0  0  0  0  0  0  0  0  0
   19.8971   19.4044   20.8435 H   0  0  0  0  0  0  0  0  0  0  0  0
   18.5425   20.4155   22.1878 C   0  0  0  0  0  0  0  0  0  0  0  0
   18.4249   21.1447   21.3759 H   0  0  0  0  0  0  0  0  0  0  0  0
   17.5294   20.2162   22.5621 H   0  0  0  0  0  0  0  0  0  0  0  0
   19.3605   21.0697   23.3293 C   0  0  0  0  0  0  0  0  0  0  0  0
   19.0434   22.1179   23.4164 H   0  0  0  0  0  0  0  0  0  0  0  0
   19.0945   20.6016   24.2869 H   0  0  0  0  0  0  0  0  0  0  0  0
   18.0741   18.4480   20.8900 O   0  0  0  0  0  0  0  0  0  0  0  0
   18.4781   17.6739   20.4448 H   0  0  0  0  0  0  0  0  0  0  0  0
  1  2  1  0  0  0  0
  1  3  1  0  0  0  0
  1  4  1  0  0  0  0
  4  5  1  0  0  0  0
  4  6  1  0  0  0  0
  4  7  1  0  0  0  0
  7  8  1  0  0  0  0
  7  9  1  0  0  0  0
  7 10  1  0  0  0  0
 10 11  1  0  0  0  0
 10 12  1  0  0  0  0
 10 13  1  0  0  0  0
 13 14  1  0  0  0  0
 13 15  1  0  0  0  0
 15 16  1  0  0  0  0
 15 17  1  0  0  0  0
  1 18  1  0  0  0  0
 15 18  1  0  0  0  0
 18 19  1  0  0  0  0
 18 20  1  0  0  0  0
 13 21  1  0  0  0  0
 21 22  1  0  0  0  0
M  END
> <VConfSearch Rank>
194

> <Conf_Id>
144

> <Delta U+W>
-3.291

> <U+W>
3.132

> <U>
5.411

> <W>
-2.279

> <W(PB)>
-4.300

> <W(SA)>
2.021

> <Valence>
11.909

> <Coulomb>
-8.733

> <VdW>
2.236

> <VdW6>
-8.936

> <VdW12>
11.172

> <Bond>
0.223

> <Angle>
2.457

> <Pdih>
9.228

> <Idih>
0.000

> <Tether>
0.000

$$$$
VeraChem MOL file


 22 22  0  0  0  0  0  0  0  0999 V2000     
   20.5796   19.7191   24.2553 C   0  0  0  0  0  0  0  0  0  0  0  0
   20.7474   19.9969   25.3048 H   0  0  0  0  0  0  0  0  0  0  0  0
   21.4035   19.0452   23.9838 H   0  0  0  0  0  0  0  0  0  0  0  0
   20.6218   21.0110   23.4060 C   0  0  0  0  0  0  0  0  0  0  0  0
   19.6433   21.5084   23.4481 H   0  0  0  0  0  0  0  0  0  0  0  0
   21.3284   21.7156   23.8657 H   0  0  0  0  0  0  0  0  0  0  0  0
   21.0401   20.8122   21.9290 C   0  0  0  0  0  0  0  0  0  0  0  0
   22.1368   20.7899   21.8680 H   0  0  0  0  0  0  0  0  0  0  0  0
   20.7280   21.7002   21.3623 H   0  0  0  0  0  0  0  0  0  0  0  0
   20.4923   19.5465   21.2246 C   0  0  0  0  0  0  0  0  0  0  0  0
   20.5794   19.7012   20.1406 H   0  0  0  0  0  0  0  0  0  0  0  0
   21.1438   18.6942   21.4569 H   0  0  0  0  0  0  0  0  0  0  0  0
   19.0322   19.1847   21.5780 C   0  0  0  0  0  0  0  0  0  0  0  0
   18.4537   20.1053   21.7405 H   0  0  0  0  0  0  0  0  0  0  0  0
   18.9316   18.2814   22.8281 C   0  0  0  0  0  0  0  0  0  0  0  0
   17.9191   17.8586   22.8759 H   0  0  0  0  0  0  0  0  0  0  0  0
   19.6122   17.4271   22.7186 H   0  0  0  0  0  0  0  0  0  0  0  0
   19.2178   18.9885   24.1742 C   0  0  0  0  0  0  0  0  0  0  0  0
   18.4088   19.6995   24.3910 H   0  0  0  0  0  0  0  0  0  0  0  0
   19.1762   18.2355   24.9729 H   0  0  0  0  0  0  0  0  0  0  0  0
   18.4695   18.4765   20.4816 O   0  0  0  0  0  0  0  0  0  0  0  0
   19.0104   17.6680   20.3676 H   0  0  0  0  0  0  0  0  0  0  0  0
  1  2  1  0  0  0  0
  1  3  1  0  0  0  0
  1  4  1  0  0  0  0
  4  5  1  0  0  0  0
  4  6  1  0  0  0  0
  4  7  1  0  0  0  0
  7  8  1  0  0  0  0
  7  9  1  0  0  0  0
  7 10  1  0  0  0  0
 10 11  1  0  0  0  0
 10 12  1  0  0  0  0
 10 13  1  0  0  0  0
 13 14  1  0  0  0  0
 13 15  1  0  0  0  0
 15 16  1  0  0  0  0
 15 17  1  0  0  0  0
  1 18  1  0  0  0  0
 15 18  1  0  0  0  0
 18 19  1  0  0  0  0
 18 20  1  0  0  0  0
 13 21  1  0  0  0  0
 21 22  1  0  0  0  0
M  END
> <VConfSearch Rank>
195

> <Conf_Id>
76

> <Delta U+W>
-3.175

> <U+W>
3.248

> <U>
5.336

> <W>
-2.088

> <W(PB)>
-4.098

> <W(SA)>
2.010

> <Valence>
12.390

> <Coulomb>
-9.270

> <VdW>
2.216

> <VdW6>
-8.967

> <VdW12>
11.183

> <Bond>
0.218

> <Angle>
2.426

> <Pdih>
9.745

> <Idih>
0.000

> <Tether>
0.000

$$$$
VeraChem MOL file


 22 22  0  0  0  0  0  0  0  0999 V2000     
   18.3966   19.1216   23.4165 C   0  0  0  0  0  0  0  0  0  0  0  0
   17.4221   19.5516   23.1476 H   0  0  0  0  0  0  0  0  0  0  0  0
   18.1810   18.3251   24.1417 H   0  0  0  0  0  0  0  0  0  0  0  0
   19.2349   20.2203   24.1128 C   0  0  0  0  0  0  0  0  0  0  0  0
   19.0306   21.1912   23.6415 H   0  0  0  0  0  0  0  0  0  0  0  0
   18.8776   20.3152   25.1473 H   0  0  0  0  0  0  0  0  0  0  0  0
   20.7604   19.9673   24.1296 C   0  0  0  0  0  0  0  0  0  0  0  0
   20.9810   18.9006   24.2721 H   0  0  0  0  0  0  0  0  0  0  0  0
   21.1823   20.4848   25.0016 H   0  0  0  0  0  0  0  0  0  0  0  0
   21.4731   20.5135   22.8663 C   0  0  0  0  0  0  0  0  0  0  0  0
   21.1778   21.5588   22.7090 H   0  0  0  0  0  0  0  0  0  0  0  0
   22.5540   20.5382   23.0571 H   0  0  0  0  0  0  0  0  0  0  0  0
   21.2386   19.7276   21.5562 C   0  0  0  0  0  0  0  0  0  0  0  0
   21.6535   20.3385   20.7414 H   0  0  0  0  0  0  0  0  0  0  0  0
   19.7538   19.4529   21.2091 C   0  0  0  0  0  0  0  0  0  0  0  0
   19.2028   20.4007   21.1551 H   0  0  0  0  0  0  0  0  0  0  0  0
   19.7228   19.0345   20.1948 H   0  0  0  0  0  0  0  0  0  0  0  0
   19.0253   18.4696   22.1619 C   0  0  0  0  0  0  0  0  0  0  0  0
   18.2228   17.9671   21.6053 H   0  0  0  0  0  0  0  0  0  0  0  0
   19.7095   17.6688   22.4719 H   0  0  0  0  0  0  0  0  0  0  0  0
   21.9643   18.5033   21.6064 O   0  0  0  0  0  0  0  0  0  0  0  0
   21.7474   18.0167   20.7851 H   0  0  0  0  0  0  0  0  0  0  0  0
  1  2  1  0  0  0  0
  1  3  1  0  0  0  0
  1  4  1  0  0  0  0
  4  5  1  0  0  0  0
  4  6  1  0  0  0  0
  4  7  1  0  0  0  0
  7  8  1  0  0  0  0
  7  9  1  0  0  0  0
  7 10  1  0  0  0  0
 10 11  1  0  0  0  0
 10 12  1  0  0  0  0
 10 13  1  0  0  0  0
 13 14  1  0  0  0  0
 13 15  1  0  0  0  0
 15 16  1  0  0  0  0
 15 17  1  0  0  0  0
  1 18  1  0  0  0  0
 15 18  1  0  0  0  0
 18 19  1  0  0  0  0
 18 20  1  0  0  0  0
 13 21  1  0  0  0  0
 21 22  1  0  0  0  0
M  END
> <VConfSearch Rank>
196

> <Conf_Id>
95

> <Delta U+W>
-2.289

> <U+W>
4.134

> <U>
6.373

> <W>
-2.240

> <W(PB)>
-4.254

> <W(SA)>
2.015

> <Valence>
12.093

> <Coulomb>
-8.058

> <VdW>
2.339

> <VdW6>
-9.683

> <VdW12>
12.022

> <Bond>
0.268

> <Angle>
3.005

> <Pdih>
8.820

> <Idih>
0.000

> <Tether>
0.000

$$$$
VeraChem MOL file


 22 22  0  0  0  0  0  0  0  0999 V2000     
   19.0463   18.0320   22.3799 C   0  0  0  0  0  0  0  0  0  0  0  0
   18.1514   17.6748   22.9074 H   0  0  0  0  0  0  0  0  0  0  0  0
   19.2370   17.2974   21.5856 H   0  0  0  0  0  0  0  0  0  0  0  0
   20.2327   18.0151   23.3732 C   0  0  0  0  0  0  0  0  0  0  0  0
   19.8760   18.2938   24.3740 H   0  0  0  0  0  0  0  0  0  0  0  0
   20.5834   16.9781   23.4651 H   0  0  0  0  0  0  0  0  0  0  0  0
   21.4271   18.9164   22.9828 C   0  0  0  0  0  0  0  0  0  0  0  0
   21.5912   18.9031   21.8967 H   0  0  0  0  0  0  0  0  0  0  0  0
   22.3347   18.4926   23.4335 H   0  0  0  0  0  0  0  0  0  0  0  0
   21.2752   20.3682   23.5029 C   0  0  0  0  0  0  0  0  0  0  0  0
   21.0275   20.3424   24.5720 H   0  0  0  0  0  0  0  0  0  0  0  0
   22.2514   20.8666   23.4424 H   0  0  0  0  0  0  0  0  0  0  0  0
   20.2332   21.2479   22.7749 C   0  0  0  0  0  0  0  0  0  0  0  0
   20.1253   22.1682   23.3670 H   0  0  0  0  0  0  0  0  0  0  0  0
   18.8213   20.6236   22.6446 C   0  0  0  0  0  0  0  0  0  0  0  0
   18.4290   20.3736   23.6386 H   0  0  0  0  0  0  0  0  0  0  0  0
   18.1577   21.4027   22.2476 H   0  0  0  0  0  0  0  0  0  0  0  0
   18.7294   19.3899   21.7091 C   0  0  0  0  0  0  0  0  0  0  0  0
   17.7124   19.3340   21.2983 H   0  0  0  0  0  0  0  0  0  0  0  0
   19.3856   19.5308   20.8401 H   0  0  0  0  0  0  0  0  0  0  0  0
   20.7316   21.6038   21.4889 O   0  0  0  0  0  0  0  0  0  0  0  0
   21.6268   21.9750   21.6268 H   0  0  0  0  0  0  0  0  0  0  0  0
  1  2  1  0  0  0  0
  1  3  1  0  0  0  0
  1  4  1  0  0  0  0
  4  5  1  0  0  0  0
  4  6  1  0  0  0  0
  4  7  1  0  0  0  0
  7  8  1  0  0  0  0
  7  9  1  0  0  0  0
  7 10  1  0  0  0  0
 10 11  1  0  0  0  0
 10 12  1  0  0  0  0
 10 13  1  0  0  0  0
 13 14  1  0  0  0  0
 13 15  1  0  0  0  0
 15 16  1  0  0  0  0
 15 17  1  0  0  0  0
  1 18  1  0  0  0  0
 15 18  1  0  0  0  0
 18 19  1  0  0  0  0
 18 20  1  0  0  0  0
 13 21  1  0  0  0  0
 21 22  1  0  0  0  0
M  END
> <VConfSearch Rank>
197

> <Conf_Id>
41

> <Delta U+W>
-2.114

> <U+W>
4.310

> <U>
6.598

> <W>
-2.289

> <W(PB)>
-4.294

> <W(SA)>
2.005

> <Valence>
12.082

> <Coulomb>
-7.801

> <VdW>
2.317

> <VdW6>
-9.658

> <VdW12>
11.975

> <Bond>
0.267

> <Angle>
3.051

> <Pdih>
8.764

> <Idih>
0.000

> <Tether>
0.000

$$$$
VeraChem MOL file


 22 22  0  0  0  0  0  0  0  0999 V2000     
   20.8968   19.6980   21.2684 C   0  0  0  0  0  0  0  0  0  0  0  0
   21.2387   19.6507   20.2257 H   0  0  0  0  0  0  0  0  0  0  0  0
   21.3880   20.5739   21.7142 H   0  0  0  0  0  0  0  0  0  0  0  0
   21.3483   18.3999   21.9745 C   0  0  0  0  0  0  0  0  0  0  0  0
   20.8002   17.5446   21.5567 H   0  0  0  0  0  0  0  0  0  0  0  0
   22.4067   18.2230   21.7400 H   0  0  0  0  0  0  0  0  0  0  0  0
   21.1891   18.4133   23.5107 C   0  0  0  0  0  0  0  0  0  0  0  0
   21.8991   19.1294   23.9454 H   0  0  0  0  0  0  0  0  0  0  0  0
   21.4941   17.4292   23.8910 H   0  0  0  0  0  0  0  0  0  0  0  0
   19.7537   18.7112   24.0227 C   0  0  0  0  0  0  0  0  0  0  0  0
   19.0326   18.0467   23.5302 H   0  0  0  0  0  0  0  0  0  0  0  0
   19.7198   18.4479   25.0877 H   0  0  0  0  0  0  0  0  0  0  0  0
   19.2814   20.1830   23.9011 C   0  0  0  0  0  0  0  0  0  0  0  0
   18.4184   20.2937   24.5736 H   0  0  0  0  0  0  0  0  0  0  0  0
   18.7927   20.6231   22.4966 C   0  0  0  0  0  0  0  0  0  0  0  0
   17.7002   20.5188   22.4701 H   0  0  0  0  0  0  0  0  0  0  0  0
   18.9825   21.6973   22.3721 H   0  0  0  0  0  0  0  0  0  0  0  0
   19.3621   19.8736   21.2666 C   0  0  0  0  0  0  0  0  0  0  0  0
   18.8759   18.8936   21.1689 H   0  0  0  0  0  0  0  0  0  0  0  0
   19.0741   20.4359   20.3680 H   0  0  0  0  0  0  0  0  0  0  0  0
   20.2984   21.0719   24.3554 O   0  0  0  0  0  0  0  0  0  0  0  0
   19.9312   21.9770   24.2933 H   0  0  0  0  0  0  0  0  0  0  0  0
  1  2  1  0  0  0  0
  1  3  1  0  0  0  0
  1  4  1  0  0  0  0
  4  5  1  0  0  0  0
  4  6  1  0  0  0  0
  4  7  1  0  0  0  0
  7  8  1  0  0  0  0
  7  9  1  0  0  0  0
  7 10  1  0  0  0  0
 10 11  1  0  0  0  0
 10 12  1  0  0  0  0
 10 13  1  0  0  0  0
 13 14  1  0  0  0  0
 13 15  1  0  0  0  0
 15 16  1  0  0  0  0
 15 17  1  0  0  0  0
  1 18  1  0  0  0  0
 15 18  1  0  0  0  0
 18 19  1  0  0  0  0
 18 20  1  0  0  0  0
 13 21  1  0  0  0  0
 21 22  1  0  0  0  0
M  END
> <VConfSearch Rank>
198

> <Conf_Id>
104

> <Delta U+W>
-1.172

> <U+W>
5.252

> <U>
7.482

> <W>
-2.230

> <W(PB)>
-4.220

> <W(SA)>
1.990

> <Valence>
12.309

> <Coulomb>
-7.084

> <VdW>
2.258

> <VdW6>
-9.770

> <VdW12>
12.028

> <Bond>
0.284

> <Angle>
3.491

> <Pdih>
8.535

> <Idih>
0.000

> <Tether>
0.000

$$$$
VeraChem MOL file


 22 22  0  0  0  0  0  0  0  0999 V2000     
   21.5627   18.9162   22.7600 C   0  0  0  0  0  0  0  0  0  0  0  0
   21.8117   19.1759   21.7222 H   0  0  0  0  0  0  0  0  0  0  0  0
   22.4345   18.3758   23.1537 H   0  0  0  0  0  0  0  0  0  0  0  0
   20.3497   17.9596   22.8141 C   0  0  0  0  0  0  0  0  0  0  0  0
   20.6954   16.9421   22.5849 H   0  0  0  0  0  0  0  0  0  0  0  0
   19.9741   17.9064   23.8443 H   0  0  0  0  0  0  0  0  0  0  0  0
   19.1880   18.2928   21.8440 C   0  0  0  0  0  0  0  0  0  0  0  0
   18.2591   17.8762   22.2576 H   0  0  0  0  0  0  0  0  0  0  0  0
   19.3556   17.7520   20.9025 H   0  0  0  0  0  0  0  0  0  0  0  0
   18.9627   19.7880   21.4907 C   0  0  0  0  0  0  0  0  0  0  0  0
   19.6979   20.0928   20.7347 H   0  0  0  0  0  0  0  0  0  0  0  0
   17.9872   19.8757   20.9950 H   0  0  0  0  0  0  0  0  0  0  0  0
   19.0014   20.8012   22.6577 C   0  0  0  0  0  0  0  0  0  0  0  0
   18.4526   21.6965   22.3318 H   0  0  0  0  0  0  0  0  0  0  0  0
   20.4353   21.2590   23.0078 C   0  0  0  0  0  0  0  0  0  0  0  0
   20.9045   21.6678   22.1034 H   0  0  0  0  0  0  0  0  0  0  0  0
   20.3641   22.1001   23.7097 H   0  0  0  0  0  0  0  0  0  0  0  0
   21.3729   20.1887   23.6195 C   0  0  0  0  0  0  0  0  0  0  0  0
   22.3573   20.6517   23.7722 H   0  0  0  0  0  0  0  0  0  0  0  0
   21.0184   19.9120   24.6216 H   0  0  0  0  0  0  0  0  0  0  0  0
   18.3654   20.2630   23.8066 O   0  0  0  0  0  0  0  0  0  0  0  0
   18.8534   19.4341   23.9831 H   0  0  0  0  0  0  0  0  0  0  0  0
  1  2  1  0  0  0  0
  1  3  1  0  0  0  0
  1  4  1  0  0  0  0
  4  5  1  0  0  0  0
  4  6  1  0  0  0  0
  4  7  1  0  0  0  0
  7  8  1  0  0  0  0
  7  9  1  0  0  0  0
  7 10  1  0  0  0  0
 10 11  1  0  0  0  0
 10 12  1  0  0  0  0
 10 13  1  0  0  0  0
 13 14  1  0  0  0  0
 13 15  1  0  0  0  0
 15 16  1  0  0  0  0
 15 17  1  0  0  0  0
  1 18  1  0  0  0  0
 15 18  1  0  0  0  0
 18 19  1  0  0  0  0
 18 20  1  0  0  0  0
 13 21  1  0  0  0  0
 21 22  1  0  0  0  0
M  END
> <VConfSearch Rank>
199

> <Conf_Id>
99

> <Delta U+W>
-3.852

> <U+W>
2.572

> <U>
3.922

> <W>
-1.350

> <W(PB)>
-3.345

> <W(SA)>
1.995

> <Valence>
12.571

> <Coulomb>
-10.581

> <VdW>
1.932

> <VdW6>
-10.483

> <VdW12>
12.415

> <Bond>
0.268

> <Angle>
3.728

> <Pdih>
8.575

> <Idih>
0.000

> <Tether>
0.000

$$$$
VeraChem MOL file


 22 22  0  0  0  0  0  0  0  0999 V2000     
   19.9622   21.1139   22.0043 C   0  0  0  0  0  0  0  0  0  0  0  0
   19.7840   21.7860   21.1535 H   0  0  0  0  0  0  0  0  0  0  0  0
   20.1506   21.7802   22.8567 H   0  0  0  0  0  0  0  0  0  0  0  0
   21.2337   20.2724   21.6899 C   0  0  0  0  0  0  0  0  0  0  0  0
   21.6060   20.5803   20.7030 H   0  0  0  0  0  0  0  0  0  0  0  0
   22.0402   20.5295   22.3895 H   0  0  0  0  0  0  0  0  0  0  0  0
   21.0407   18.7346   21.6629 C   0  0  0  0  0  0  0  0  0  0  0  0
   21.9483   18.2788   21.2444 H   0  0  0  0  0  0  0  0  0  0  0  0
   20.2477   18.4733   20.9512 H   0  0  0  0  0  0  0  0  0  0  0  0
   20.7585   18.0593   23.0337 C   0  0  0  0  0  0  0  0  0  0  0  0
   20.2654   17.0966   22.8468 H   0  0  0  0  0  0  0  0  0  0  0  0
   21.7200   17.8068   23.5004 H   0  0  0  0  0  0  0  0  0  0  0  0
   19.9248   18.8423   24.0777 C   0  0  0  0  0  0  0  0  0  0  0  0
   19.6466   18.1276   24.8654 H   0  0  0  0  0  0  0  0  0  0  0  0
   18.6105   19.4811   23.5653 C   0  0  0  0  0  0  0  0  0  0  0  0
   17.8634   18.6866   23.4414 H   0  0  0  0  0  0  0  0  0  0  0  0
   18.2207   20.1234   24.3662 H   0  0  0  0  0  0  0  0  0  0  0  0
   18.6601   20.3101   22.2518 C   0  0  0  0  0  0  0  0  0  0  0  0
   18.4594   19.6567   21.3937 H   0  0  0  0  0  0  0  0  0  0  0  0
   17.8163   21.0134   22.2664 H   0  0  0  0  0  0  0  0  0  0  0  0
   20.7339   19.8385   24.6829 O   0  0  0  0  0  0  0  0  0  0  0  0
   20.9529   20.4445   23.9469 H   0  0  0  0  0  0  0  0  0  0  0  0
  1  2  1  0  0  0  0
  1  3  1  0  0  0  0
  1  4  1  0  0  0  0
  4  5  1  0  0  0  0
  4  6  1  0  0  0  0
  4  7  1  0  0  0  0
  7  8  1  0  0  0  0
  7  9  1  0  0  0  0
  7 10  1  0  0  0  0
 10 11  1  0  0  0  0
 10 12  1  0  0  0  0
 10 13  1  0  0  0  0
 13 14  1  0  0  0  0
 13 15  1  0  0  0  0
 15 16  1  0  0  0  0
 15 17  1  0  0  0  0
  1 18  1  0  0  0  0
 15 18  1  0  0  0  0
 18 19  1  0  0  0  0
 18 20  1  0  0  0  0
 13 21  1  0  0  0  0
 21 22  1  0  0  0  0
M  END
> <VConfSearch Rank>
200

> <Conf_Id>
98

> <Delta U+W>
0.930

> <U+W>
7.353

> <U>
8.455

> <W>
-1.102

> <W(PB)>
-3.101

> <W(SA)>
2.000

> <Valence>
15.601

> <Coulomb>
-10.573

> <VdW>
3.427

> <VdW6>
-11.360

> <VdW12>
14.787

> <Bond>
0.471

> <Angle>
5.445

> <Pdih>
9.685

> <Idih>
0.000

> <Tether>
0.000

$$$$
VeraChem MOL file


 22 22  0  0  0  0  0  0  0  0999 V2000     
   21.6486   19.8568   23.0837 C   0  0  0  0  0  0  0  0  0  0  0  0
   21.9405   19.2943   22.1875 H   0  0  0  0  0  0  0  0  0  0  0  0
   22.5922   20.2229   23.5105 H   0  0  0  0  0  0  0  0  0  0  0  0
   20.9817   18.9027   24.1070 C   0  0  0  0  0  0  0  0  0  0  0  0
   21.7112   18.1187   24.3522 H   0  0  0  0  0  0  0  0  0  0  0  0
   20.7972   19.4416   25.0462 H   0  0  0  0  0  0  0  0  0  0  0  0
   19.6672   18.2131   23.6473 C   0  0  0  0  0  0  0  0  0  0  0  0
   18.8025   18.7016   24.1149 H   0  0  0  0  0  0  0  0  0  0  0  0
   19.6614   17.1885   24.0433 H   0  0  0  0  0  0  0  0  0  0  0  0
   19.4591   18.1533   22.1108 C   0  0  0  0  0  0  0  0  0  0  0  0
   20.3531   17.7226   21.6430 H   0  0  0  0  0  0  0  0  0  0  0  0
   18.6563   17.4342   21.8992 H   0  0  0  0  0  0  0  0  0  0  0  0
   19.1203   19.5054   21.4173 C   0  0  0  0  0  0  0  0  0  0  0  0
   19.7478   19.5918   20.5185 H   0  0  0  0  0  0  0  0  0  0  0  0
   19.3288   20.7778   22.2762 C   0  0  0  0  0  0  0  0  0  0  0  0
   18.9433   21.6456   21.7254 H   0  0  0  0  0  0  0  0  0  0  0  0
   18.7120   20.7175   23.1810 H   0  0  0  0  0  0  0  0  0  0  0  0
   20.7961   21.0797   22.6708 C   0  0  0  0  0  0  0  0  0  0  0  0
   21.2960   21.5756   21.8277 H   0  0  0  0  0  0  0  0  0  0  0  0
   20.7928   21.8102   23.4912 H   0  0  0  0  0  0  0  0  0  0  0  0
   17.7540   19.4782   21.0202 O   0  0  0  0  0  0  0  0  0  0  0  0
   17.5833   20.3136   20.5374 H   0  0  0  0  0  0  0  0  0  0  0  0
  1  2  1  0  0  0  0
  1  3  1  0  0  0  0
  1  4  1  0  0  0  0
  4  5  1  0  0  0  0
  4  6  1  0  0  0  0
  4  7  1  0  0  0  0
  7  8  1  0  0  0  0
  7  9  1  0  0  0  0
  7 10  1  0  0  0  0
 10 11  1  0  0  0  0
 10 12  1  0  0  0  0
 10 13  1  0  0  0  0
 13 14  1  0  0  0  0
 13 15  1  0  0  0  0
 15 16  1  0  0  0  0
 15 17  1  0  0  0  0
  1 18  1  0  0  0  0
 15 18  1  0  0  0  0
 18 19  1  0  0  0  0
 18 20  1  0  0  0  0
 13 21  1  0  0  0  0
 21 22  1  0  0  0  0
M  END
> <VConfSearch Rank>
201

> <Conf_Id>
141

> <Delta U+W>
0.000

> <U+W>
6.423

> <U>
8.781

> <W>
-2.358

> <W(PB)>
-4.373

> <W(SA)>
2.015

> <Valence>
13.328

> <Coulomb>
-8.387

> <VdW>
3.840

> <VdW6>
-9.744

> <VdW12>
13.584

> <Bond>
0.436

> <Angle>
3.478

> <Pdih>
9.415

> <Idih>
0.000

> <Tether>
0.000

$$$$
VeraChem MOL file


 22 22  0  0  0  0  0  0  0  0999 V2000     
   19.5490   21.2569   23.0569 C   0  0  0  0  0  0  0  0  0  0  0  0
   19.9786   21.5776   22.0982 H   0  0  0  0  0  0  0  0  0  0  0  0
   19.1279   22.1606   23.5185 H   0  0  0  0  0  0  0  0  0  0  0  0
   20.6481   20.7152   24.0025 C   0  0  0  0  0  0  0  0  0  0  0  0
   21.2923   21.5519   24.3057 H   0  0  0  0  0  0  0  0  0  0  0  0
   20.1836   20.3460   24.9270 H   0  0  0  0  0  0  0  0  0  0  0  0
   21.5459   19.6080   23.4038 C   0  0  0  0  0  0  0  0  0  0  0  0
   22.2339   19.2637   24.1880 H   0  0  0  0  0  0  0  0  0  0  0  0
   22.1801   20.0383   22.6167 H   0  0  0  0  0  0  0  0  0  0  0  0
   20.7853   18.3825   22.8408 C   0  0  0  0  0  0  0  0  0  0  0  0
   21.5214   17.5870   22.6653 H   0  0  0  0  0  0  0  0  0  0  0  0
   20.0812   17.9883   23.5850 H   0  0  0  0  0  0  0  0  0  0  0  0
   20.0547   18.6915   21.5148 C   0  0  0  0  0  0  0  0  0  0  0  0
   20.6450   19.4364   20.9621 H   0  0  0  0  0  0  0  0  0  0  0  0
   18.6194   19.2394   21.6852 C   0  0  0  0  0  0  0  0  0  0  0  0
   18.3315   19.7139   20.7382 H   0  0  0  0  0  0  0  0  0  0  0  0
   17.9245   18.4005   21.8247 H   0  0  0  0  0  0  0  0  0  0  0  0
   18.3950   20.2509   22.8369 C   0  0  0  0  0  0  0  0  0  0  0  0
   17.4720   20.8076   22.6247 H   0  0  0  0  0  0  0  0  0  0  0  0
   18.2018   19.7068   23.7714 H   0  0  0  0  0  0  0  0  0  0  0  0
   19.9826   17.4991   20.7426 O   0  0  0  0  0  0  0  0  0  0  0  0
   20.9053   17.2105   20.5820 H   0  0  0  0  0  0  0  0  0  0  0  0
  1  2  1  0  0  0  0
  1  3  1  0  0  0  0
  1  4  1  0  0  0  0
  4  5  1  0  0  0  0
  4  6  1  0  0  0  0
  4  7  1  0  0  0  0
  7  8  1  0  0  0  0
  7  9  1  0  0  0  0
  7 10  1  0  0  0  0
 10 11  1  0  0  0  0
 10 12  1  0  0  0  0
 10 13  1  0  0  0  0
 13 14  1  0  0  0  0
 13 15  1  0  0  0  0
 15 16  1  0  0  0  0
 15 17  1  0  0  0  0
  1 18  1  0  0  0  0
 15 18  1  0  0  0  0
 18 19  1  0  0  0  0
 18 20  1  0  0  0  0
 13 21  1  0  0  0  0
 21 22  1  0  0  0  0
M  END
> <VConfSearch Rank>
202

> <Conf_Id>
144

> <Delta U+W>
-3.291

> <U+W>
3.132

> <U>
5.411

> <W>
-2.279

> <W(PB)>
-4.300

> <W(SA)>
2.021

> <Valence>
11.909

> <Coulomb>
-8.733

> <VdW>
2.236

> <VdW6>
-8.936

> <VdW12>
11.172

> <Bond>
0.223

> <Angle>
2.457

> <Pdih>
9.228

> <Idih>
0.000

> <Tether>
0.000

$$$$
VeraChem MOL file


 22 22  0  0  0  0  0  0  0  0999 V2000     
   20.0768   21.0584   21.8060 C   0  0  0  0  0  0  0  0  0  0  0  0
   19.8824   21.9535   21.1995 H   0  0  0  0  0  0  0  0  0  0  0  0
   21.1137   21.1487   22.1573 H   0  0  0  0  0  0  0  0  0  0  0  0
   19.9090   19.8187   20.8967 C   0  0  0  0  0  0  0  0  0  0  0  0
   18.8439   19.5592   20.8252 H   0  0  0  0  0  0  0  0  0  0  0  0
   20.2151   20.0831   19.8752 H   0  0  0  0  0  0  0  0  0  0  0  0
   20.7191   18.5727   21.3294 C   0  0  0  0  0  0  0  0  0  0  0  0
   21.7439   18.6611   20.9436 H   0  0  0  0  0  0  0  0  0  0  0  0
   20.2876   17.6939   20.8310 H   0  0  0  0  0  0  0  0  0  0  0  0
   20.7988   18.3002   22.8518 C   0  0  0  0  0  0  0  0  0  0  0  0
   21.0957   17.2518   22.9902 H   0  0  0  0  0  0  0  0  0  0  0  0
   21.6115   18.8990   23.2830 H   0  0  0  0  0  0  0  0  0  0  0  0
   19.4933   18.5737   23.6318 C   0  0  0  0  0  0  0  0  0  0  0  0
   18.6283   18.3257   23.0004 H   0  0  0  0  0  0  0  0  0  0  0  0
   19.3840   20.0398   24.1087 C   0  0  0  0  0  0  0  0  0  0  0  0
   18.5827   20.1076   24.8566 H   0  0  0  0  0  0  0  0  0  0  0  0
   20.3081   20.3262   24.6275 H   0  0  0  0  0  0  0  0  0  0  0  0
   19.0867   21.0723   22.9954 C   0  0  0  0  0  0  0  0  0  0  0  0
   18.0650   20.9201   22.6213 H   0  0  0  0  0  0  0  0  0  0  0  0
   19.0943   22.0742   23.4457 H   0  0  0  0  0  0  0  0  0  0  0  0
   19.4767   17.7385   24.7818 O   0  0  0  0  0  0  0  0  0  0  0  0
   20.2594   17.9871   25.3155 H   0  0  0  0  0  0  0  0  0  0  0  0
  1  2  1  0  0  0  0
  1  3  1  0  0  0  0
  1  4  1  0  0  0  0
  4  5  1  0  0  0  0
  4  6  1  0  0  0  0
  4  7  1  0  0  0  0
  7  8  1  0  0  0  0
  7  9  1  0  0  0  0
  7 10  1  0  0  0  0
 10 11  1  0  0  0  0
 10 12  1  0  0  0  0
 10 13  1  0  0  0  0
 13 14  1  0  0  0  0
 13 15  1  0  0  0  0
 15 16  1  0  0  0  0
 15 17  1  0  0  0  0
  1 18  1  0  0  0  0
 15 18  1  0  0  0  0
 18 19  1  0  0  0  0
 18 20  1  0  0  0  0
 13 21  1  0  0  0  0
 21 22  1  0  0  0  0
M  END
> <VConfSearch Rank>
203

> <Conf_Id>
76

> <Delta U+W>
-3.175

> <U+W>
3.248

> <U>
5.336

> <W>
-2.088

> <W(PB)>
-4.098

> <W(SA)>
2.010

> <Valence>
12.390

> <Coulomb>
-9.270

> <VdW>
2.216

> <VdW6>
-8.967

> <VdW12>
11.183

> <Bond>
0.218

> <Angle>
2.426

> <Pdih>
9.745

> <Idih>
0.000

> <Tether>
0.000

$$$$
VeraChem MOL file


 22 22  0  0  0  0  0  0  0  0999 V2000     
   20.1456   17.6838   22.6919 C   0  0  0  0  0  0  0  0  0  0  0  0
   20.2232   17.0240   23.5667 H   0  0  0  0  0  0  0  0  0  0  0  0
   20.0392   17.0178   21.8247 H   0  0  0  0  0  0  0  0  0  0  0  0
   21.4715   18.4708   22.5600 C   0  0  0  0  0  0  0  0  0  0  0  0
   21.8535   18.7156   23.5603 H   0  0  0  0  0  0  0  0  0  0  0  0
   22.2206   17.8015   22.1154 H   0  0  0  0  0  0  0  0  0  0  0  0
   21.3849   19.7613   21.7123 C   0  0  0  0  0  0  0  0  0  0  0  0
   20.7110   19.6249   20.8555 H   0  0  0  0  0  0  0  0  0  0  0  0
   22.3791   19.9589   21.2895 H   0  0  0  0  0  0  0  0  0  0  0  0
   20.9720   21.0005   22.5465 C   0  0  0  0  0  0  0  0  0  0  0  0
   21.6159   21.0698   23.4326 H   0  0  0  0  0  0  0  0  0  0  0  0
   21.1814   21.9039   21.9588 H   0  0  0  0  0  0  0  0  0  0  0  0
   19.4951   21.0583   22.9988 C   0  0  0  0  0  0  0  0  0  0  0  0
   19.4161   21.8859   23.7185 H   0  0  0  0  0  0  0  0  0  0  0  0
   18.9732   19.7845   23.7099 C   0  0  0  0  0  0  0  0  0  0  0  0
   19.6007   19.5621   24.5826 H   0  0  0  0  0  0  0  0  0  0  0  0
   17.9780   20.0141   24.1119 H   0  0  0  0  0  0  0  0  0  0  0  0
   18.8543   18.5283   22.8082 C   0  0  0  0  0  0  0  0  0  0  0  0
   18.0626   17.8802   23.2076 H   0  0  0  0  0  0  0  0  0  0  0  0
   18.5156   18.8158   21.8042 H   0  0  0  0  0  0  0  0  0  0  0  0
   18.6722   21.3653   21.8778 O   0  0  0  0  0  0  0  0  0  0  0  0
   17.7468   21.3406   22.1962 H   0  0  0  0  0  0  0  0  0  0  0  0
  1  2  1  0  0  0  0
  1  3  1  0  0  0  0
  1  4  1  0  0  0  0
  4  5  1  0  0  0  0
  4  6  1  0  0  0  0
  4  7  1  0  0  0  0
  7  8  1  0  0  0  0
  7  9  1  0  0  0  0
  7 10  1  0  0  0  0
 10 11  1  0  0  0  0
 10 12  1  0  0  0  0
 10 13  1  0  0  0  0
 13 14  1  0  0  0  0
 13 15  1  0  0  0  0
 15 16  1  0  0  0  0
 15 17  1  0  0  0  0
  1 18  1  0  0  0  0
 15 18  1  0  0  0  0
 18 19  1  0  0  0  0
 18 20  1  0  0  0  0
 13 21  1  0  0  0  0
 21 22  1  0  0  0  0
M  END
> <VConfSearch Rank>
204

> <Conf_Id>
95

> <Delta U+W>
-2.289

> <U+W>
4.134

> <U>
6.373

> <W>
-2.240

> <W(PB)>
-4.254

> <W(SA)>
2.015

> <Valence>
12.093

> <Coulomb>
-8.058

> <VdW>
2.339

> <VdW6>
-9.683

> <VdW12>
12.022

> <Bond>
0.268

> <Angle>
3.005

> <Pdih>
8.820

> <Idih>
0.000

> <Tether>
0.000

$$$$
VeraChem MOL file


 22 22  0  0  0  0  0  0  0  0999 V2000     
   18.1546   19.5276   22.9716 C   0  0  0  0  0  0  0  0  0  0  0  0
   17.3602   19.9396   22.3344 H   0  0  0  0  0  0  0  0  0  0  0  0
   17.6398   19.0015   23.7870 H   0  0  0  0  0  0  0  0  0  0  0  0
   18.9590   20.7081   23.5663 C   0  0  0  0  0  0  0  0  0  0  0  0
   19.0320   21.5128   22.8222 H   0  0  0  0  0  0  0  0  0  0  0  0
   18.3782   21.1295   24.3981 H   0  0  0  0  0  0  0  0  0  0  0  0
   20.3742   20.3468   24.0743 C   0  0  0  0  0  0  0  0  0  0  0  0
   20.3810   19.3552   24.5471 H   0  0  0  0  0  0  0  0  0  0  0  0
   20.6458   21.0622   24.8623 H   0  0  0  0  0  0  0  0  0  0  0  0
   21.4497   20.4383   22.9624 C   0  0  0  0  0  0  0  0  0  0  0  0
   21.3590   21.4070   22.4542 H   0  0  0  0  0  0  0  0  0  0  0  0
   22.4413   20.4484   23.4332 H   0  0  0  0  0  0  0  0  0  0  0  0
   21.4273   19.3174   21.8981 C   0  0  0  0  0  0  0  0  0  0  0  0
   22.1223   19.6214   21.1021 H   0  0  0  0  0  0  0  0  0  0  0  0
   20.0511   19.0721   21.2300 C   0  0  0  0  0  0  0  0  0  0  0  0
   19.6900   19.9982   20.7649 H   0  0  0  0  0  0  0  0  0  0  0  0
   20.2123   18.3655   20.4056 H   0  0  0  0  0  0  0  0  0  0  0  0
   18.9608   18.4834   22.1628 C   0  0  0  0  0  0  0  0  0  0  0  0
   18.2510   17.9063   21.5550 H   0  0  0  0  0  0  0  0  0  0  0  0
   19.4113   17.7559   22.8509 H   0  0  0  0  0  0  0  0  0  0  0  0
   21.9140   18.1092   22.4743 O   0  0  0  0  0  0  0  0  0  0  0  0
   22.7717   18.3233   22.8947 H   0  0  0  0  0  0  0  0  0  0  0  0
  1  2  1  0  0  0  0
  1  3  1  0  0  0  0
  1  4  1  0  0  0  0
  4  5  1  0  0  0  0
  4  6  1  0  0  0  0
  4  7  1  0  0  0  0
  7  8  1  0  0  0  0
  7  9  1  0  0  0  0
  7 10  1  0  0  0  0
 10 11  1  0  0  0  0
 10 12  1  0  0  0  0
 10 13  1  0  0  0  0
 13 14  1  0  0  0  0
 13 15  1  0  0  0  0
 15 16  1  0  0  0  0
 15 17  1  0  0  0  0
  1 18  1  0  0  0  0
 15 18  1  0  0  0  0
 18 19  1  0  0  0  0
 18 20  1  0  0  0  0
 13 21  1  0  0  0  0
 21 22  1  0  0  0  0
M  END
> <VConfSearch Rank>
205

> <Conf_Id>
41

> <Delta U+W>
-2.114

> <U+W>
4.310

> <U>
6.598

> <W>
-2.289

> <W(PB)>
-4.294

> <W(SA)>
2.005

> <Valence>
12.082

> <Coulomb>
-7.801

> <VdW>
2.317

> <VdW6>
-9.658

> <VdW12>
11.975

> <Bond>
0.267

> <Angle>
3.051

> <Pdih>
8.764

> <Idih>
0.000

> <Tether>
0.000

$$$$
VeraChem MOL file


 22 22  0  0  0  0  0  0  0  0999 V2000     
   21.1982   18.3130   22.9101 C   0  0  0  0  0  0  0  0  0  0  0  0
   22.0256   17.6628   23.2252 H   0  0  0  0  0  0  0  0  0  0  0  0
   20.4876   17.6690   22.3738 H   0  0  0  0  0  0  0  0  0  0  0  0
   21.7762   19.3924   21.9676 C   0  0  0  0  0  0  0  0  0  0  0  0
   22.4350   20.0624   22.5366 H   0  0  0  0  0  0  0  0  0  0  0  0
   22.4170   18.9011   21.2229 H   0  0  0  0  0  0  0  0  0  0  0  0
   20.7155   20.2275   21.2174 C   0  0  0  0  0  0  0  0  0  0  0  0
   20.1965   19.5899   20.4894 H   0  0  0  0  0  0  0  0  0  0  0  0
   21.2413   20.9858   20.6219 H   0  0  0  0  0  0  0  0  0  0  0  0
   19.6816   20.9489   22.1238 C   0  0  0  0  0  0  0  0  0  0  0  0
   20.1993   21.5253   22.9009 H   0  0  0  0  0  0  0  0  0  0  0  0
   19.1574   21.6890   21.5057 H   0  0  0  0  0  0  0  0  0  0  0  0
   18.5997   20.0463   22.7711 C   0  0  0  0  0  0  0  0  0  0  0  0
   17.7879   20.7121   23.0980 H   0  0  0  0  0  0  0  0  0  0  0  0
   19.0423   19.2560   24.0300 C   0  0  0  0  0  0  0  0  0  0  0  0
   18.7492   19.8363   24.9145 H   0  0  0  0  0  0  0  0  0  0  0  0
   18.4622   18.3258   24.0907 H   0  0  0  0  0  0  0  0  0  0  0  0
   20.5456   18.9127   24.1752 C   0  0  0  0  0  0  0  0  0  0  0  0
   21.1027   19.8039   24.4940 H   0  0  0  0  0  0  0  0  0  0  0  0
   20.6474   18.1921   24.9980 H   0  0  0  0  0  0  0  0  0  0  0  0
   18.0581   19.1478   21.8066 O   0  0  0  0  0  0  0  0  0  0  0  0
   17.3578   18.6355   22.2594 H   0  0  0  0  0  0  0  0  0  0  0  0
  1  2  1  0  0  0  0
  1  3  1  0  0  0  0
  1  4  1  0  0  0  0
  4  5  1  0  0  0  0
  4  6  1  0  0  0  0
  4  7  1  0  0  0  0
  7  8  1  0  0  0  0
  7  9  1  0  0  0  0
  7 10  1  0  0  0  0
 10 11  1  0  0  0  0
 10 12  1  0  0  0  0
 10 13  1  0  0  0  0
 13 14  1  0  0  0  0
 13 15  1  0  0  0  0
 15 16  1  0  0  0  0
 15 17  1  0  0  0  0
  1 18  1  0  0  0  0
 15 18  1  0  0  0  0
 18 19  1  0  0  0  0
 18 20  1  0  0  0  0
 13 21  1  0  0  0  0
 21 22  1  0  0  0  0
M  END
> <VConfSearch Rank>
206

> <Conf_Id>
104

> <Delta U+W>
-1.172

> <U+W>
5.252

> <U>
7.482

> <W>
-2.230

> <W(PB)>
-4.220

> <W(SA)>
1.990

> <Valence>
12.309

> <Coulomb>
-7.084

> <VdW>
2.258

> <VdW6>
-9.770

> <VdW12>
12.028

> <Bond>
0.284

> <Angle>
3.491

> <Pdih>
8.535

> <Idih>
0.000

> <Tether>
0.000

$$$$
VeraChem MOL file


 22 22  0  0  0  0  0  0  0  0999 V2000     
   19.2868   20.7695   23.5088 C   0  0  0  0  0  0  0  0  0  0  0  0
   18.5391   20.0761   23.9170 H   0  0  0  0  0  0  0  0  0  0  0  0
   19.0190   21.7632   23.8933 H   0  0  0  0  0  0  0  0  0  0  0  0
   19.2066   20.8222   21.9660 C   0  0  0  0  0  0  0  0  0  0  0  0
   18.3680   21.4725   21.6808 H   0  0  0  0  0  0  0  0  0  0  0  0
   20.1007   21.3231   21.5723 H   0  0  0  0  0  0  0  0  0  0  0  0
   19.0086   19.4586   21.2568 C   0  0  0  0  0  0  0  0  0  0  0  0
   19.4068   19.5365   20.2357 H   0  0  0  0  0  0  0  0  0  0  0  0
   17.9308   19.2829   21.1363 H   0  0  0  0  0  0  0  0  0  0  0  0
   19.6127   18.2044   21.9448 C   0  0  0  0  0  0  0  0  0  0  0  0
   18.9508   17.8896   22.7620 H   0  0  0  0  0  0  0  0  0  0  0  0
   19.5909   17.3782   21.2225 H   0  0  0  0  0  0  0  0  0  0  0  0
   21.0535   18.3263   22.4919 C   0  0  0  0  0  0  0  0  0  0  0  0
   21.4605   17.3080   22.5709 H   0  0  0  0  0  0  0  0  0  0  0  0
   21.1075   18.9403   23.9091 C   0  0  0  0  0  0  0  0  0  0  0  0
   20.4726   18.3423   24.5757 H   0  0  0  0  0  0  0  0  0  0  0  0
   22.1296   18.8254   24.2930 H   0  0  0  0  0  0  0  0  0  0  0  0
   20.7023   20.4300   24.0332 C   0  0  0  0  0  0  0  0  0  0  0  0
   20.7514   20.7044   25.0957 H   0  0  0  0  0  0  0  0  0  0  0  0
   21.4473   21.0616   23.5308 H   0  0  0  0  0  0  0  0  0  0  0  0
   21.8629   19.0788   21.6015 O   0  0  0  0  0  0  0  0  0  0  0  0
   21.3953   19.9337   21.5186 H   0  0  0  0  0  0  0  0  0  0  0  0
  1  2  1  0  0  0  0
  1  3  1  0  0  0  0
  1  4  1  0  0  0  0
  4  5  1  0  0  0  0
  4  6  1  0  0  0  0
  4  7  1  0  0  0  0
  7  8  1  0  0  0  0
  7  9  1  0  0  0  0
  7 10  1  0  0  0  0
 10 11  1  0  0  0  0
 10 12  1  0  0  0  0
 10 13  1  0  0  0  0
 13 14  1  0  0  0  0
 13 15  1  0  0  0  0
 15 16  1  0  0  0  0
 15 17  1  0  0  0  0
  1 18  1  0  0  0  0
 15 18  1  0  0  0  0
 18 19  1  0  0  0  0
 18 20  1  0  0  0  0
 13 21  1  0  0  0  0
 21 22  1  0  0  0  0
M  END
> <VConfSearch Rank>
207

> <Conf_Id>
99

> <Delta U+W>
-3.852

> <U+W>
2.572

> <U>
3.922

> <W>
-1.350

> <W(PB)>
-3.345

> <W(SA)>
1.995

> <Valence>
12.571

> <Coulomb>
-10.581

> <VdW>
1.932

> <VdW6>
-10.483

> <VdW12>
12.415

> <Bond>
0.268

> <Angle>
3.728

> <Pdih>
8.575

> <Idih>
0.000

> <Tether>
0.000

$$$$
VeraChem MOL file


 22 22  0  0  0  0  0  0  0  0999 V2000     
   20.8910   18.2451   22.1312 C   0  0  0  0  0  0  0  0  0  0  0  0
   21.3791   17.6642   21.3365 H   0  0  0  0  0  0  0  0  0  0  0  0
   21.0090   17.6380   23.0387 H   0  0  0  0  0  0  0  0  0  0  0  0
   19.3831   18.3785   21.7675 C   0  0  0  0  0  0  0  0  0  0  0  0
   19.2185   17.8553   20.8154 H   0  0  0  0  0  0  0  0  0  0  0  0
   18.7681   17.8364   22.4983 H   0  0  0  0  0  0  0  0  0  0  0  0
   18.8479   19.8247   21.6101 C   0  0  0  0  0  0  0  0  0  0  0  0
   17.8430   19.7762   21.1691 H   0  0  0  0  0  0  0  0  0  0  0  0
   19.4492   20.3633   20.8671 H   0  0  0  0  0  0  0  0  0  0  0  0
   18.7541   20.6623   22.9157 C   0  0  0  0  0  0  0  0  0  0  0  0
   18.7538   21.7252   22.6420 H   0  0  0  0  0  0  0  0  0  0  0  0
   17.7730   20.4806   23.3744 H   0  0  0  0  0  0  0  0  0  0  0  0
   19.8285   20.4378   24.0082 C   0  0  0  0  0  0  0  0  0  0  0  0
   19.7273   21.2614   24.7295 H   0  0  0  0  0  0  0  0  0  0  0  0
   21.3015   20.4366   23.5305 C   0  0  0  0  0  0  0  0  0  0  0  0
   21.6024   21.4729   23.3297 H   0  0  0  0  0  0  0  0  0  0  0  0
   21.9231   20.1128   24.3759 H   0  0  0  0  0  0  0  0  0  0  0  0
   21.6711   19.5749   22.2913 C   0  0  0  0  0  0  0  0  0  0  0  0
   21.5699   20.1758   21.3789 H   0  0  0  0  0  0  0  0  0  0  0  0
   22.7431   19.3426   22.3512 H   0  0  0  0  0  0  0  0  0  0  0  0
   19.5533   19.2336   24.7062 O   0  0  0  0  0  0  0  0  0  0  0  0
   19.6558   18.5376   24.0265 H   0  0  0  0  0  0  0  0  0  0  0  0
  1  2  1  0  0  0  0
  1  3  1  0  0  0  0
  1  4  1  0  0  0  0
  4  5  1  0  0  0  0
  4  6  1  0  0  0  0
  4  7  1  0  0  0  0
  7  8  1  0  0  0  0
  7  9  1  0  0  0  0
  7 10  1  0  0  0  0
 10 11  1  0  0  0  0
 10 12  1  0  0  0  0
 10 13  1  0  0  0  0
 13 14  1  0  0  0  0
 13 15  1  0  0  0  0
 15 16  1  0  0  0  0
 15 17  1  0  0  0  0
  1 18  1  0  0  0  0
 15 18  1  0  0  0  0
 18 19  1  0  0  0  0
 18 20  1  0  0  0  0
 13 21  1  0  0  0  0
 21 22  1  0  0  0  0
M  END
> <VConfSearch Rank>
208

> <Conf_Id>
98

> <Delta U+W>
0.930

> <U+W>
7.353

> <U>
8.455

> <W>
-1.102

> <W(PB)>
-3.101

> <W(SA)>
2.000

> <Valence>
15.601

> <Coulomb>
-10.573

> <VdW>
3.427

> <VdW6>
-11.360

> <VdW12>
14.787

> <Bond>
0.471

> <Angle>
5.445

> <Pdih>
9.685

> <Idih>
0.000

> <Tether>
0.000

$$$$
VeraChem MOL file


 22 22  0  0  0  0  0  0  0  0999 V2000     
   20.2680   19.9608   24.3008 C   0  0  0  0  0  0  0  0  0  0  0  0
   20.3568   21.0014   23.9631 H   0  0  0  0  0  0  0  0  0  0  0  0
   20.3503   20.0082   25.3952 H   0  0  0  0  0  0  0  0  0  0  0  0
   21.4551   19.1289   23.7523 C   0  0  0  0  0  0  0  0  0  0  0  0
   22.3808   19.5881   24.1251 H   0  0  0  0  0  0  0  0  0  0  0  0
   21.4281   18.1198   24.1855 H   0  0  0  0  0  0  0  0  0  0  0  0
   21.5592   19.0180   22.2058 C   0  0  0  0  0  0  0  0  0  0  0  0
   21.2109   18.0310   21.8750 H   0  0  0  0  0  0  0  0  0  0  0  0
   22.6223   19.0493   21.9311 H   0  0  0  0  0  0  0  0  0  0  0  0
   20.8090   20.1228   21.4158 C   0  0  0  0  0  0  0  0  0  0  0  0
   21.1140   21.1063   21.7946 H   0  0  0  0  0  0  0  0  0  0  0  0
   21.1593   20.1009   20.3750 H   0  0  0  0  0  0  0  0  0  0  0  0
   19.2549   20.0303   21.4265 C   0  0  0  0  0  0  0  0  0  0  0  0
   18.8571   21.0345   21.6325 H   0  0  0  0  0  0  0  0  0  0  0  0
   18.6422   19.0476   22.4556 C   0  0  0  0  0  0  0  0  0  0  0  0
   17.5602   18.9811   22.2831 H   0  0  0  0  0  0  0  0  0  0  0  0
   19.0229   18.0357   22.2716 H   0  0  0  0  0  0  0  0  0  0  0  0
   18.8637   19.4200   23.9429 C   0  0  0  0  0  0  0  0  0  0  0  0
   18.1219   20.1761   24.2342 H   0  0  0  0  0  0  0  0  0  0  0  0
   18.6503   18.5357   24.5587 H   0  0  0  0  0  0  0  0  0  0  0  0
   18.8189   19.6217   20.1349 O   0  0  0  0  0  0  0  0  0  0  0  0
   17.8392   19.6274   20.1524 H   0  0  0  0  0  0  0  0  0  0  0  0
  1  2  1  0  0  0  0
  1  3  1  0  0  0  0
  1  4  1  0  0  0  0
  4  5  1  0  0  0  0
  4  6  1  0  0  0  0
  4  7  1  0  0  0  0
  7  8  1  0  0  0  0
  7  9  1  0  0  0  0
  7 10  1  0  0  0  0
 10 11  1  0  0  0  0
 10 12  1  0  0  0  0
 10 13  1  0  0  0  0
 13 14  1  0  0  0  0
 13 15  1  0  0  0  0
 15 16  1  0  0  0  0
 15 17  1  0  0  0  0
  1 18  1  0  0  0  0
 15 18  1  0  0  0  0
 18 19  1  0  0  0  0
 18 20  1  0  0  0  0
 13 21  1  0  0  0  0
 21 22  1  0  0  0  0
M  END
> <VConfSearch Rank>
209

> <Conf_Id>
141

> <Delta U+W>
0.000

> <U+W>
6.423

> <U>
8.781

> <W>
-2.358

> <W(PB)>
-4.373

> <W(SA)>
2.015

> <Valence>
13.328

> <Coulomb>
-8.387

> <VdW>
3.840

> <VdW6>
-9.744

> <VdW12>
13.584

> <Bond>
0.436

> <Angle>
3.478

> <Pdih>
9.415

> <Idih>
0.000

> <Tether>
0.000

$$$$
VeraChem MOL file


 22 22  0  0  0  0  0  0  0  0999 V2000     
   21.1845   20.1361   21.5000 C   0  0  0  0  0  0  0  0  0  0  0  0
   21.8434   19.3310   21.8526 H   0  0  0  0  0  0  0  0  0  0  0  0
   21.7182   20.6255   20.6738 H   0  0  0  0  0  0  0  0  0  0  0  0
   20.9621   21.1943   22.6075 C   0  0  0  0  0  0  0  0  0  0  0  0
   21.9078   21.7268   22.7776 H   0  0  0  0  0  0  0  0  0  0  0  0
   20.2528   21.9528   22.2491 H   0  0  0  0  0  0  0  0  0  0  0  0
   20.4722   20.6364   23.9636 C   0  0  0  0  0  0  0  0  0  0  0  0
   20.2888   21.4850   24.6368 H   0  0  0  0  0  0  0  0  0  0  0  0
   21.2774   20.0525   24.4302 H   0  0  0  0  0  0  0  0  0  0  0  0
   19.1869   19.7763   23.8911 C   0  0  0  0  0  0  0  0  0  0  0  0
   18.8201   19.6405   24.9171 H   0  0  0  0  0  0  0  0  0  0  0  0
   18.3938   20.3098   23.3513 H   0  0  0  0  0  0  0  0  0  0  0  0
   19.4329   18.3882   23.2584 C   0  0  0  0  0  0  0  0  0  0  0  0
   20.4510   18.0662   23.5202 H   0  0  0  0  0  0  0  0  0  0  0  0
   19.2928   18.3502   21.7195 C   0  0  0  0  0  0  0  0  0  0  0  0
   19.7902   17.4385   21.3641 H   0  0  0  0  0  0  0  0  0  0  0  0
   18.2332   18.2378   21.4538 H   0  0  0  0  0  0  0  0  0  0  0  0
   19.8614   19.5628   20.9409 C   0  0  0  0  0  0  0  0  0  0  0  0
   20.0189   19.2534   19.8987 H   0  0  0  0  0  0  0  0  0  0  0  0
   19.1065   20.3599   20.8999 H   0  0  0  0  0  0  0  0  0  0  0  0
   18.5036   17.4625   23.8086 O   0  0  0  0  0  0  0  0  0  0  0  0
   18.6606   17.4459   24.7759 H   0  0  0  0  0  0  0  0  0  0  0  0
  1  2  1  0  0  0  0
  1  3  1  0  0  0  0
  1  4  1  0  0  0  0
  4  5  1  0  0  0  0
  4  6  1  0  0  0  0
  4  7  1  0  0  0  0
  7  8  1  0  0  0  0
  7  9  1  0  0  0  0
  7 10  1  0  0  0  0
 10 11  1  0  0  0  0
 10 12  1  0  0  0  0
 10 13  1  0  0  0  0
 13 14  1  0  0  0  0
 13 15  1  0  0  0  0
 15 16  1  0  0  0  0
 15 17  1  0  0  0  0
  1 18  1  0  0  0  0
 15 18  1  0  0  0  0
 18 19  1  0  0  0  0
 18 20  1  0  0  0  0
 13 21  1  0  0  0  0
 21 22  1  0  0  0  0
M  END
> <VConfSearch Rank>
210

> <Conf_Id>
144

> <Delta U+W>
-3.291

> <U+W>
3.132

> <U>
5.411

> <W>
-2.279

> <W(PB)>
-4.300

> <W(SA)>
2.021

> <Valence>
11.909

> <Coulomb>
-8.733

> <VdW>
2.236

> <VdW6>
-8.936

> <VdW12>
11.172

> <Bond>
0.223

> <Angle>
2.457

> <Pdih>
9.228

> <Idih>
0.000

> <Tether>
0.000

$$$$
VeraChem MOL file


 22 22  0  0  0  0  0  0  0  0999 V2000     
   19.8605   18.3088   21.4496 C   0  0  0  0  0  0  0  0  0  0  0  0
   19.6492   17.7233   20.5444 H   0  0  0  0  0  0  0  0  0  0  0  0
   20.4845   17.6679   22.0873 H   0  0  0  0  0  0  0  0  0  0  0  0
   18.5130   18.6273   22.1388 C   0  0  0  0  0  0  0  0  0  0  0  0
   18.0551   19.5030   21.6591 H   0  0  0  0  0  0  0  0  0  0  0  0
   17.8166   17.7970   21.9582 H   0  0  0  0  0  0  0  0  0  0  0  0
   18.5956   18.8562   23.6674 C   0  0  0  0  0  0  0  0  0  0  0  0
   18.5743   17.8828   24.1763 H   0  0  0  0  0  0  0  0  0  0  0  0
   17.6827   19.3786   23.9850 H   0  0  0  0  0  0  0  0  0  0  0  0
   19.8290   19.6407   24.1787 C   0  0  0  0  0  0  0  0  0  0  0  0
   19.5977   20.0102   25.1869 H   0  0  0  0  0  0  0  0  0  0  0  0
   20.6713   18.9477   24.3017 H   0  0  0  0  0  0  0  0  0  0  0  0
   20.2661   20.8224   23.2842 C   0  0  0  0  0  0  0  0  0  0  0  0
   19.3801   21.2859   22.8275 H   0  0  0  0  0  0  0  0  0  0  0  0
   21.2556   20.3931   22.1771 C   0  0  0  0  0  0  0  0  0  0  0  0
   21.7168   21.2933   21.7492 H   0  0  0  0  0  0  0  0  0  0  0  0
   22.0755   19.8149   22.6227 H   0  0  0  0  0  0  0  0  0  0  0  0
   20.6322   19.5791   21.0185 C   0  0  0  0  0  0  0  0  0  0  0  0
   19.9671   20.2291   20.4336 H   0  0  0  0  0  0  0  0  0  0  0  0
   21.4390   19.2834   20.3340 H   0  0  0  0  0  0  0  0  0  0  0  0
   20.9176   21.7849   24.1023 O   0  0  0  0  0  0  0  0  0  0  0  0
   21.6965   21.3360   24.4908 H   0  0  0  0  0  0  0  0  0  0  0  0
  1  2  1  0  0  0  0
  1  3  1  0  0  0  0
  1  4  1  0  0  0  0
  4  5  1  0  0  0  0
  4  6  1  0  0  0  0
  4  7  1  0  0  0  0
  7  8  1  0  0  0  0
  7  9  1  0  0  0  0
  7 10  1  0  0  0  0
 10 11  1  0  0  0  0
 10 12  1  0  0  0  0
 10 13  1  0  0  0  0
 13 14  1  0  0  0  0
 13 15  1  0  0  0  0
 15 16  1  0  0  0  0
 15 17  1  0  0  0  0
  1 18  1  0  0  0  0
 15 18  1  0  0  0  0
 18 19  1  0  0  0  0
 18 20  1  0  0  0  0
 13 21  1  0  0  0  0
 21 22  1  0  0  0  0
M  END
> <VConfSearch Rank>
211

> <Conf_Id>
76

> <Delta U+W>
-3.175

> <U+W>
3.248

> <U>
5.336

> <W>
-2.088

> <W(PB)>
-4.098

> <W(SA)>
2.010

> <Valence>
12.390

> <Coulomb>
-9.270

> <VdW>
2.216

> <VdW6>
-8.967

> <VdW12>
11.183

> <Bond>
0.218

> <Angle>
2.426

> <Pdih>
9.745

> <Idih>
0.000

> <Tether>
0.000

$$$$
VeraChem MOL file


 22 22  0  0  0  0  0  0  0  0999 V2000     
   18.9031   18.0947   22.8227 C   0  0  0  0  0  0  0  0  0  0  0  0
   18.1405   17.9218   23.5943 H   0  0  0  0  0  0  0  0  0  0  0  0
   18.7870   17.2755   22.1000 H   0  0  0  0  0  0  0  0  0  0  0  0
   20.2967   17.9842   23.4862 C   0  0  0  0  0  0  0  0  0  0  0  0
   20.2539   18.4026   24.5009 H   0  0  0  0  0  0  0  0  0  0  0  0
   20.5264   16.9180   23.6179 H   0  0  0  0  0  0  0  0  0  0  0  0
   21.4496   18.6532   22.7021 C   0  0  0  0  0  0  0  0  0  0  0  0
   21.3176   18.5217   21.6195 H   0  0  0  0  0  0  0  0  0  0  0  0
   22.3831   18.1353   22.9603 H   0  0  0  0  0  0  0  0  0  0  0  0
   21.6271   20.1512   23.0578 C   0  0  0  0  0  0  0  0  0  0  0  0
   21.6842   20.2587   24.1485 H   0  0  0  0  0  0  0  0  0  0  0  0
   22.6001   20.4886   22.6771 H   0  0  0  0  0  0  0  0  0  0  0  0
   20.5448   21.1141   22.5187 C   0  0  0  0  0  0  0  0  0  0  0  0
   20.7146   22.0858   23.0046 H   0  0  0  0  0  0  0  0  0  0  0  0
   19.0833   20.7007   22.8247 C   0  0  0  0  0  0  0  0  0  0  0  0
   18.9474   20.5886   23.9081 H   0  0  0  0  0  0  0  0  0  0  0  0
   18.4346   21.5356   22.5300 H   0  0  0  0  0  0  0  0  0  0  0  0
   18.5929   19.4238   22.0938 C   0  0  0  0  0  0  0  0  0  0  0  0
   17.5046   19.4889   21.9602 H   0  0  0  0  0  0  0  0  0  0  0  0
   19.0086   19.3878   21.0783 H   0  0  0  0  0  0  0  0  0  0  0  0
   20.7226   21.2826   21.1159 O   0  0  0  0  0  0  0  0  0  0  0  0
   19.9897   21.8544   20.8086 H   0  0  0  0  0  0  0  0  0  0  0  0
  1  2  1  0  0  0  0
  1  3  1  0  0  0  0
  1  4  1  0  0  0  0
  4  5  1  0  0  0  0
  4  6  1  0  0  0  0
  4  7  1  0  0  0  0
  7  8  1  0  0  0  0
  7  9  1  0  0  0  0
  7 10  1  0  0  0  0
 10 11  1  0  0  0  0
 10 12  1  0  0  0  0
 10 13  1  0  0  0  0
 13 14  1  0  0  0  0
 13 15  1  0  0  0  0
 15 16  1  0  0  0  0
 15 17  1  0  0  0  0
  1 18  1  0  0  0  0
 15 18  1  0  0  0  0
 18 19  1  0  0  0  0
 18 20  1  0  0  0  0
 13 21  1  0  0  0  0
 21 22  1  0  0  0  0
M  END
> <VConfSearch Rank>
212

> <Conf_Id>
95

> <Delta U+W>
-2.289

> <U+W>
4.134

> <U>
6.373

> <W>
-2.240

> <W(PB)>
-4.254

> <W(SA)>
2.015

> <Valence>
12.093

> <Coulomb>
-8.058

> <VdW>
2.339

> <VdW6>
-9.683

> <VdW12>
12.022

> <Bond>
0.268

> <Angle>
3.005

> <Pdih>
8.820

> <Idih>
0.000

> <Tether>
0.000

$$$$
VeraChem MOL file


 22 22  0  0  0  0  0  0  0  0999 V2000     
   21.8305   19.0722   22.3129 C   0  0  0  0  0  0  0  0  0  0  0  0
   22.7558   19.3508   22.8353 H   0  0  0  0  0  0  0  0  0  0  0  0
   22.1327   18.3658   21.5277 H   0  0  0  0  0  0  0  0  0  0  0  0
   21.2492   20.3424   21.6472 C   0  0  0  0  0  0  0  0  0  0  0  0
   21.4297   21.2105   22.2955 H   0  0  0  0  0  0  0  0  0  0  0  0
   21.8218   20.5371   20.7302 H   0  0  0  0  0  0  0  0  0  0  0  0
   19.7455   20.2675   21.2939 C   0  0  0  0  0  0  0  0  0  0  0  0
   19.4738   19.2629   20.9421 H   0  0  0  0  0  0  0  0  0  0  0  0
   19.5599   20.9464   20.4507 H   0  0  0  0  0  0  0  0  0  0  0  0
   18.8336   20.7100   22.4661 C   0  0  0  0  0  0  0  0  0  0  0  0
   19.1852   21.6766   22.8493 H   0  0  0  0  0  0  0  0  0  0  0  0
   17.8263   20.9014   22.0741 H   0  0  0  0  0  0  0  0  0  0  0  0
   18.7162   19.7221   23.6493 C   0  0  0  0  0  0  0  0  0  0  0  0
   18.1883   20.2527   24.4549 H   0  0  0  0  0  0  0  0  0  0  0  0
   20.0649   19.2338   24.2348 C   0  0  0  0  0  0  0  0  0  0  0  0
   20.6653   20.0931   24.5598 H   0  0  0  0  0  0  0  0  0  0  0  0
   19.8362   18.6661   25.1460 H   0  0  0  0  0  0  0  0  0  0  0  0
   20.9001   18.3236   23.2970 C   0  0  0  0  0  0  0  0  0  0  0  0
   21.5233   17.6608   23.9123 H   0  0  0  0  0  0  0  0  0  0  0  0
   20.2342   17.6557   22.7349 H   0  0  0  0  0  0  0  0  0  0  0  0
   17.9208   18.6075   23.2568 O   0  0  0  0  0  0  0  0  0  0  0  0
   17.0933   18.9708   22.8808 H   0  0  0  0  0  0  0  0  0  0  0  0
  1  2  1  0  0  0  0
  1  3  1  0  0  0  0
  1  4  1  0  0  0  0
  4  5  1  0  0  0  0
  4  6  1  0  0  0  0
  4  7  1  0  0  0  0
  7  8  1  0  0  0  0
  7  9  1  0  0  0  0
  7 10  1  0  0  0  0
 10 11  1  0  0  0  0
 10 12  1  0  0  0  0
 10 13  1  0  0  0  0
 13 14  1  0  0  0  0
 13 15  1  0  0  0  0
 15 16  1  0  0  0  0
 15 17  1  0  0  0  0
  1 18  1  0  0  0  0
 15 18  1  0  0  0  0
 18 19  1  0  0  0  0
 18 20  1  0  0  0  0
 13 21  1  0  0  0  0
 21 22  1  0  0  0  0
M  END
> <VConfSearch Rank>
213

> <Conf_Id>
41

> <Delta U+W>
-2.114

> <U+W>
4.310

> <U>
6.598

> <W>
-2.289

> <W(PB)>
-4.294

> <W(SA)>
2.005

> <Valence>
12.082

> <Coulomb>
-7.801

> <VdW>
2.317

> <VdW6>
-9.658

> <VdW12>
11.975

> <Bond>
0.267

> <Angle>
3.051

> <Pdih>
8.764

> <Idih>
0.000

> <Tether>
0.000

$$$$
VeraChem MOL file


 22 22  0  0  0  0  0  0  0  0999 V2000     
   19.8976   19.6591   21.0639 C   0  0  0  0  0  0  0  0  0  0  0  0
   19.5221   19.6953   20.0323 H   0  0  0  0  0  0  0  0  0  0  0  0
   20.8742   20.1623   21.0540 H   0  0  0  0  0  0  0  0  0  0  0  0
   20.0523   18.1736   21.4600 C   0  0  0  0  0  0  0  0  0  0  0  0
   19.0608   17.7053   21.5247 H   0  0  0  0  0  0  0  0  0  0  0  0
   20.5812   17.6486   20.6530 H   0  0  0  0  0  0  0  0  0  0  0  0
   20.8218   17.9350   22.7777 C   0  0  0  0  0  0  0  0  0  0  0  0
   21.8756   18.2116   22.6406 H   0  0  0  0  0  0  0  0  0  0  0  0
   20.8248   16.8550   22.9769 H   0  0  0  0  0  0  0  0  0  0  0  0
   20.2401   18.6594   24.0219 C   0  0  0  0  0  0  0  0  0  0  0  0
   19.1679   18.4453   24.1154 H   0  0  0  0  0  0  0  0  0  0  0  0
   20.7087   18.2194   24.9115 H   0  0  0  0  0  0  0  0  0  0  0  0
   20.4790   20.1899   24.0898 C   0  0  0  0  0  0  0  0  0  0  0  0
   20.3072   20.4898   25.1338 H   0  0  0  0  0  0  0  0  0  0  0  0
   19.5286   21.0620   23.2289 C   0  0  0  0  0  0  0  0  0  0  0  0
   18.7053   21.4010   23.8711 H   0  0  0  0  0  0  0  0  0  0  0  0
   20.0559   21.9773   22.9295 H   0  0  0  0  0  0  0  0  0  0  0  0
   18.9009   20.4172   21.9683 C   0  0  0  0  0  0  0  0  0  0  0  0
   18.0808   19.7476   22.2608 H   0  0  0  0  0  0  0  0  0  0  0  0
   18.4317   21.2175   21.3801 H   0  0  0  0  0  0  0  0  0  0  0  0
   21.8333   20.4975   23.7704 O   0  0  0  0  0  0  0  0  0  0  0  0
   21.9339   21.4661   23.8683 H   0  0  0  0  0  0  0  0  0  0  0  0
  1  2  1  0  0  0  0
  1  3  1  0  0  0  0
  1  4  1  0  0  0  0
  4  5  1  0  0  0  0
  4  6  1  0  0  0  0
  4  7  1  0  0  0  0
  7  8  1  0  0  0  0
  7  9  1  0  0  0  0
  7 10  1  0  0  0  0
 10 11  1  0  0  0  0
 10 12  1  0  0  0  0
 10 13  1  0  0  0  0
 13 14  1  0  0  0  0
 13 15  1  0  0  0  0
 15 16  1  0  0  0  0
 15 17  1  0  0  0  0
  1 18  1  0  0  0  0
 15 18  1  0  0  0  0
 18 19  1  0  0  0  0
 18 20  1  0  0  0  0
 13 21  1  0  0  0  0
 21 22  1  0  0  0  0
M  END
> <VConfSearch Rank>
214

> <Conf_Id>
104

> <Delta U+W>
-1.172

> <U+W>
5.252

> <U>
7.482

> <W>
-2.230

> <W(PB)>
-4.220

> <W(SA)>
1.990

> <Valence>
12.309

> <Coulomb>
-7.084

> <VdW>
2.258

> <VdW6>
-9.770

> <VdW12>
12.028

> <Bond>
0.284

> <Angle>
3.491

> <Pdih>
8.535

> <Idih>
0.000

> <Tether>
0.000

$$$$
VeraChem MOL file


 22 22  0  0  0  0  0  0  0  0999 V2000     
   21.6822   19.8666   22.5746 C   0  0  0  0  0  0  0  0  0  0  0  0
   21.8122   19.1955   21.7148 H   0  0  0  0  0  0  0  0  0  0  0  0
   22.6842   20.2480   22.8143 H   0  0  0  0  0  0  0  0  0  0  0  0
   21.1642   19.0909   23.8072 C   0  0  0  0  0  0  0  0  0  0  0  0
   22.0109   18.5685   24.2736 H   0  0  0  0  0  0  0  0  0  0  0  0
   20.8177   19.8041   24.5665 H   0  0  0  0  0  0  0  0  0  0  0  0
   20.0599   18.0410   23.5246 C   0  0  0  0  0  0  0  0  0  0  0  0
   19.4742   17.8964   24.4429 H   0  0  0  0  0  0  0  0  0  0  0  0
   20.5422   17.0729   23.3315 H   0  0  0  0  0  0  0  0  0  0  0  0
   19.0931   18.3256   22.3433 C   0  0  0  0  0  0  0  0  0  0  0  0
   19.5939   18.0710   21.4003 H   0  0  0  0  0  0  0  0  0  0  0  0
   18.2503   17.6264   22.4193 H   0  0  0  0  0  0  0  0  0  0  0  0
   18.5209   19.7574   22.2306 C   0  0  0  0  0  0  0  0  0  0  0  0
   17.5988   19.6950   21.6349 H   0  0  0  0  0  0  0  0  0  0  0  0
   19.4684   20.7256   21.4871 C   0  0  0  0  0  0  0  0  0  0  0  0
   19.6975   20.3043   20.4997 H   0  0  0  0  0  0  0  0  0  0  0  0
   18.9211   21.6569   21.2913 H   0  0  0  0  0  0  0  0  0  0  0  0
   20.7960   21.0791   22.2022 C   0  0  0  0  0  0  0  0  0  0  0  0
   21.3722   21.7357   21.5362 H   0  0  0  0  0  0  0  0  0  0  0  0
   20.5880   21.6780   23.0991 H   0  0  0  0  0  0  0  0  0  0  0  0
   18.2061   20.2711   23.5156 O   0  0  0  0  0  0  0  0  0  0  0  0
   19.0498   20.2175   24.0071 H   0  0  0  0  0  0  0  0  0  0  0  0
  1  2  1  0  0  0  0
  1  3  1  0  0  0  0
  1  4  1  0  0  0  0
  4  5  1  0  0  0  0
  4  6  1  0  0  0  0
  4  7  1  0  0  0  0
  7  8  1  0  0  0  0
  7  9  1  0  0  0  0
  7 10  1  0  0  0  0
 10 11  1  0  0  0  0
 10 12  1  0  0  0  0
 10 13  1  0  0  0  0
 13 14  1  0  0  0  0
 13 15  1  0  0  0  0
 15 16  1  0  0  0  0
 15 17  1  0  0  0  0
  1 18  1  0  0  0  0
 15 18  1  0  0  0  0
 18 19  1  0  0  0  0
 18 20  1  0  0  0  0
 13 21  1  0  0  0  0
 21 22  1  0  0  0  0
M  END
> <VConfSearch Rank>
215

> <Conf_Id>
99

> <Delta U+W>
-3.852

> <U+W>
2.572

> <U>
3.922

> <W>
-1.350

> <W(PB)>
-3.345

> <W(SA)>
1.995

> <Valence>
12.571

> <Coulomb>
-10.581

> <VdW>
1.932

> <VdW6>
-10.483

> <VdW12>
12.415

> <Bond>
0.268

> <Angle>
3.728

> <Pdih>
8.575

> <Idih>
0.000

> <Tether>
0.000

$$$$
VeraChem MOL file


 22 22  0  0  0  0  0  0  0  0999 V2000     
   21.4818   19.1742   21.8865 C   0  0  0  0  0  0  0  0  0  0  0  0
   22.4451   19.4290   21.4234 H   0  0  0  0  0  0  0  0  0  0  0  0
   21.4061   18.0821   21.7995 H   0  0  0  0  0  0  0  0  0  0  0  0
   20.3568   19.8579   21.0554 C   0  0  0  0  0  0  0  0  0  0  0  0
   20.8331   20.4085   20.2324 H   0  0  0  0  0  0  0  0  0  0  0  0
   19.7341   19.0981   20.5645 H   0  0  0  0  0  0  0  0  0  0  0  0
   19.4514   20.8518   21.8268 C   0  0  0  0  0  0  0  0  0  0  0  0
   18.8396   21.4004   21.0978 H   0  0  0  0  0  0  0  0  0  0  0  0
   20.0696   21.6227   22.3034 H   0  0  0  0  0  0  0  0  0  0  0  0
   18.4920   20.2255   22.8767 C   0  0  0  0  0  0  0  0  0  0  0  0
   18.2176   21.0053   23.5987 H   0  0  0  0  0  0  0  0  0  0  0  0
   17.5550   19.9546   22.3721 H   0  0  0  0  0  0  0  0  0  0  0  0
   18.9765   18.9808   23.6603 C   0  0  0  0  0  0  0  0  0  0  0  0
   18.2724   18.8327   24.4915 H   0  0  0  0  0  0  0  0  0  0  0  0
   20.3926   19.0701   24.2807 C   0  0  0  0  0  0  0  0  0  0  0  0
   20.3428   19.7131   25.1688 H   0  0  0  0  0  0  0  0  0  0  0  0
   20.6514   18.0722   24.6593 H   0  0  0  0  0  0  0  0  0  0  0  0
   21.5576   19.5716   23.3829 C   0  0  0  0  0  0  0  0  0  0  0  0
   21.6516   20.6610   23.4724 H   0  0  0  0  0  0  0  0  0  0  0  0
   22.4953   19.1786   23.7986 H   0  0  0  0  0  0  0  0  0  0  0  0
   18.8919   17.8330   22.8303 O   0  0  0  0  0  0  0  0  0  0  0  0
   19.5316   18.0128   22.1124 H   0  0  0  0  0  0  0  0  0  0  0  0
  1  2  1  0  0  0  0
  1  3  1  0  0  0  0
  1  4  1  0  0  0  0
  4  5  1  0  0  0  0
  4  6  1  0  0  0  0
  4  7  1  0  0  0  0
  7  8  1  0  0  0  0
  7  9  1  0  0  0  0
  7 10  1  0  0  0  0
 10 11  1  0  0  0  0
 10 12  1  0  0  0  0
 10 13  1  0  0  0  0
 13 14  1  0  0  0  0
 13 15  1  0  0  0  0
 15 16  1  0  0  0  0
 15 17  1  0  0  0  0
  1 18  1  0  0  0  0
 15 18  1  0  0  0  0
 18 19  1  0  0  0  0
 18 20  1  0  0  0  0
 13 21  1  0  0  0  0
 21 22  1  0  0  0  0
M  END
> <VConfSearch Rank>
216

> <Conf_Id>
98

> <Delta U+W>
0.930

> <U+W>
7.353

> <U>
8.455

> <W>
-1.102

> <W(PB)>
-3.101

> <W(SA)>
2.000

> <Valence>
15.601

> <Coulomb>
-10.573

> <VdW>
3.427

> <VdW6>
-11.360

> <VdW12>
14.787

> <Bond>
0.471

> <Angle>
5.445

> <Pdih>
9.685

> <Idih>
0.000

> <Tether>
0.000

$$$$
VeraChem MOL file


 22 22  0  0  0  0  0  0  0  0999 V2000     
   18.9356   19.8742   21.3620 C   0  0  0  0  0  0  0  0  0  0  0  0
   18.1249   19.8497   22.1016 H   0  0  0  0  0  0  0  0  0  0  0  0
   18.4492   20.1435   20.4146 H   0  0  0  0  0  0  0  0  0  0  0  0
   19.5536   18.4605   21.2149 C   0  0  0  0  0  0  0  0  0  0  0  0
   18.7510   17.7800   20.8995 H   0  0  0  0  0  0  0  0  0  0  0  0
   20.2827   18.4616   20.3933 H   0  0  0  0  0  0  0  0  0  0  0  0
   20.2191   17.8663   22.4872 C   0  0  0  0  0  0  0  0  0  0  0  0
   21.3117   17.9355   22.4077 H   0  0  0  0  0  0  0  0  0  0  0  0
   20.0053   16.7892   22.5142 H   0  0  0  0  0  0  0  0  0  0  0  0
   19.7569   18.4985   23.8268 C   0  0  0  0  0  0  0  0  0  0  0  0
   18.6608   18.4842   23.8722 H   0  0  0  0  0  0  0  0  0  0  0  0
   20.0813   17.8440   24.6471 H   0  0  0  0  0  0  0  0  0  0  0  0
   20.2614   19.9446   24.1062 C   0  0  0  0  0  0  0  0  0  0  0  0
   19.4068   20.5391   24.4603 H   0  0  0  0  0  0  0  0  0  0  0  0
   20.8985   20.6837   22.9028 C   0  0  0  0  0  0  0  0  0  0  0  0
   21.3209   21.6345   23.2528 H   0  0  0  0  0  0  0  0  0  0  0  0
   21.7560   20.1109   22.5297 H   0  0  0  0  0  0  0  0  0  0  0  0
   19.9360   20.9953   21.7296 C   0  0  0  0  0  0  0  0  0  0  0  0
   19.3615   21.8998   21.9718 H   0  0  0  0  0  0  0  0  0  0  0  0
   20.5359   21.2474   20.8446 H   0  0  0  0  0  0  0  0  0  0  0  0
   21.2392   19.8891   25.1386 O   0  0  0  0  0  0  0  0  0  0  0  0
   21.4968   20.8142   25.3340 H   0  0  0  0  0  0  0  0  0  0  0  0
  1  2  1  0  0  0  0
  1  3  1  0  0  0  0
  1  4  1  0  0  0  0
  4  5  1  0  0  0  0
  4  6  1  0  0  0  0
  4  7  1  0  0  0  0
  7  8  1  0  0  0  0
  7  9  1  0  0  0  0
  7 10  1  0  0  0  0
 10 11  1  0  0  0  0
 10 12  1  0  0  0  0
 10 13  1  0  0  0  0
 13 14  1  0  0  0  0
 13 15  1  0  0  0  0
 15 16  1  0  0  0  0
 15 17  1  0  0  0  0
  1 18  1  0  0  0  0
 15 18  1  0  0  0  0
 18 19  1  0  0  0  0
 18 20  1  0  0  0  0
 13 21  1  0  0  0  0
 21 22  1  0  0  0  0
M  END
> <VConfSearch Rank>
217

> <Conf_Id>
141

> <Delta U+W>
0.000

> <U+W>
6.423

> <U>
8.781

> <W>
-2.358

> <W(PB)>
-4.373

> <W(SA)>
2.015

> <Valence>
13.328

> <Coulomb>
-8.387

> <VdW>
3.840

> <VdW6>
-9.744

> <VdW12>
13.584

> <Bond>
0.436

> <Angle>
3.478

> <Pdih>
9.415

> <Idih>
0.000

> <Tether>
0.000

$$$$
VeraChem MOL file


 22 22  0  0  0  0  0  0  0  0999 V2000     
   19.4116   19.8019   21.0174 C   0  0  0  0  0  0  0  0  0  0  0  0
   18.4142   20.0301   21.4170 H   0  0  0  0  0  0  0  0  0  0  0  0
   19.3342   19.9118   19.9270 H   0  0  0  0  0  0  0  0  0  0  0  0
   19.8046   18.3346   21.3147 C   0  0  0  0  0  0  0  0  0  0  0  0
   19.1600   17.6725   20.7207 H   0  0  0  0  0  0  0  0  0  0  0  0
   20.8279   18.1525   20.9591 H   0  0  0  0  0  0  0  0  0  0  0  0
   19.6956   17.9105   22.7975 C   0  0  0  0  0  0  0  0  0  0  0  0
   20.0634   16.8791   22.8865 H   0  0  0  0  0  0  0  0  0  0  0  0
   18.6374   17.8774   23.0907 H   0  0  0  0  0  0  0  0  0  0  0  0
   20.4787   18.8020   23.7921 C   0  0  0  0  0  0  0  0  0  0  0  0
   20.5136   18.2743   24.7543 H   0  0  0  0  0  0  0  0  0  0  0  0
   21.5215   18.9183   23.4696 H   0  0  0  0  0  0  0  0  0  0  0  0
   19.8194   20.1837   24.0012 C   0  0  0  0  0  0  0  0  0  0  0  0
   18.7304   20.0627   23.9107 H   0  0  0  0  0  0  0  0  0  0  0  0
   20.2717   21.2693   22.9981 C   0  0  0  0  0  0  0  0  0  0  0  0
   19.5302   22.0780   23.0285 H   0  0  0  0  0  0  0  0  0  0  0  0
   21.2150   21.7130   23.3436 H   0  0  0  0  0  0  0  0  0  0  0  0
   20.4580   20.8204   21.5271 C   0  0  0  0  0  0  0  0  0  0  0  0
   20.4230   21.7160   20.8919 H   0  0  0  0  0  0  0  0  0  0  0  0
   21.4663   20.4052   21.3945 H   0  0  0  0  0  0  0  0  0  0  0  0
   20.1223   20.6423   25.3132 O   0  0  0  0  0  0  0  0  0  0  0  0
   19.7603   19.9770   25.9353 H   0  0  0  0  0  0  0  0  0  0  0  0
  1  2  1  0  0  0  0
  1  3  1  0  0  0  0
  1  4  1  0  0  0  0
  4  5  1  0  0  0  0
  4  6  1  0  0  0  0
  4  7  1  0  0  0  0
  7  8  1  0  0  0  0
  7  9  1  0  0  0  0
  7 10  1  0  0  0  0
 10 11  1  0  0  0  0
 10 12  1  0  0  0  0
 10 13  1  0  0  0  0
 13 14  1  0  0  0  0
 13 15  1  0  0  0  0
 15 16  1  0  0  0  0
 15 17  1  0  0  0  0
  1 18  1  0  0  0  0
 15 18  1  0  0  0  0
 18 19  1  0  0  0  0
 18 20  1  0  0  0  0
 13 21  1  0  0  0  0
 21 22  1  0  0  0  0
M  END
> <VConfSearch Rank>
218

> <Conf_Id>
144

> <Delta U+W>
-3.291

> <U+W>
3.132

> <U>
5.411

> <W>
-2.279

> <W(PB)>
-4.300

> <W(SA)>
2.021

> <Valence>
11.909

> <Coulomb>
-8.733

> <VdW>
2.236

> <VdW6>
-8.936

> <VdW12>
11.172

> <Bond>
0.223

> <Angle>
2.457

> <Pdih>
9.228

> <Idih>
0.000

> <Tether>
0.000

$$$$
VeraChem MOL file


 22 22  0  0  0  0  0  0  0  0999 V2000     
   18.8922   20.4400   21.5957 C   0  0  0  0  0  0  0  0  0  0  0  0
   18.1909   20.7355   20.8033 H   0  0  0  0  0  0  0  0  0  0  0  0
   19.1164   21.3555   22.1599 H   0  0  0  0  0  0  0  0  0  0  0  0
   20.1674   19.8816   20.9220 C   0  0  0  0  0  0  0  0  0  0  0  0
   20.0062   18.8297   20.6494 H   0  0  0  0  0  0  0  0  0  0  0  0
   20.3273   20.4090   19.9716 H   0  0  0  0  0  0  0  0  0  0  0  0
   21.4621   20.0081   21.7609 C   0  0  0  0  0  0  0  0  0  0  0  0
   21.8823   21.0134   21.6202 H   0  0  0  0  0  0  0  0  0  0  0  0
   22.2065   19.3134   21.3483 H   0  0  0  0  0  0  0  0  0  0  0  0
   21.3225   19.7525   23.2818 C   0  0  0  0  0  0  0  0  0  0  0  0
   22.3249   19.5467   23.6811 H   0  0  0  0  0  0  0  0  0  0  0  0
   20.9900   20.6758   23.7735 H   0  0  0  0  0  0  0  0  0  0  0  0
   20.3686   18.5984   23.6636 C   0  0  0  0  0  0  0  0  0  0  0  0
   20.4252   17.8069   22.9028 H   0  0  0  0  0  0  0  0  0  0  0  0
   18.9036   19.0666   23.8168 C   0  0  0  0  0  0  0  0  0  0  0  0
   18.3338   18.2781   24.3264 H   0  0  0  0  0  0  0  0  0  0  0  0
   18.8662   19.9428   24.4771 H   0  0  0  0  0  0  0  0  0  0  0  0
   18.1783   19.3992   22.4913 C   0  0  0  0  0  0  0  0  0  0  0  0
   18.0206   18.4738   21.9205 H   0  0  0  0  0  0  0  0  0  0  0  0
   17.1752   19.7754   22.7341 H   0  0  0  0  0  0  0  0  0  0  0  0
   20.7892   18.0657   24.9125 O   0  0  0  0  0  0  0  0  0  0  0  0
   20.7267   18.7974   25.5604 H   0  0  0  0  0  0  0  0  0  0  0  0
  1  2  1  0  0  0  0
  1  3  1  0  0  0  0
  1  4  1  0  0  0  0
  4  5  1  0  0  0  0
  4  6  1  0  0  0  0
  4  7  1  0  0  0  0
  7  8  1  0  0  0  0
  7  9  1  0  0  0  0
  7 10  1  0  0  0  0
 10 11  1  0  0  0  0
 10 12  1  0  0  0  0
 10 13  1  0  0  0  0
 13 14  1  0  0  0  0
 13 15  1  0  0  0  0
 15 16  1  0  0  0  0
 15 17  1  0  0  0  0
  1 18  1  0  0  0  0
 15 18  1  0  0  0  0
 18 19  1  0  0  0  0
 18 20  1  0  0  0  0
 13 21  1  0  0  0  0
 21 22  1  0  0  0  0
M  END
> <VConfSearch Rank>
219

> <Conf_Id>
76

> <Delta U+W>
-3.175

> <U+W>
3.248

> <U>
5.336

> <W>
-2.088

> <W(PB)>
-4.098

> <W(SA)>
2.010

> <Valence>
12.390

> <Coulomb>
-9.270

> <VdW>
2.216

> <VdW6>
-8.967

> <VdW12>
11.183

> <Bond>
0.218

> <Angle>
2.426

> <Pdih>
9.745

> <Idih>
0.000

> <Tether>
0.000

$$$$
VeraChem MOL file


 22 22  0  0  0  0  0  0  0  0999 V2000     
   21.3287   20.9351   22.8669 C   0  0  0  0  0  0  0  0  0  0  0  0
   21.1281   21.9988   23.0544 H   0  0  0  0  0  0  0  0  0  0  0  0
   22.4220   20.8299   22.8877 H   0  0  0  0  0  0  0  0  0  0  0  0
   20.8186   20.5894   21.4474 C   0  0  0  0  0  0  0  0  0  0  0  0
   19.8968   21.1504   21.2423 H   0  0  0  0  0  0  0  0  0  0  0  0
   21.5556   20.9604   20.7222 H   0  0  0  0  0  0  0  0  0  0  0  0
   20.5732   19.0846   21.1888 C   0  0  0  0  0  0  0  0  0  0  0  0
   21.3327   18.4699   21.6911 H   0  0  0  0  0  0  0  0  0  0  0  0
   20.6941   18.8993   20.1130 H   0  0  0  0  0  0  0  0  0  0  0  0
   19.1457   18.6321   21.5881 C   0  0  0  0  0  0  0  0  0  0  0  0
   18.4118   19.3074   21.1299 H   0  0  0  0  0  0  0  0  0  0  0  0
   18.9545   17.6454   21.1461 H   0  0  0  0  0  0  0  0  0  0  0  0
   18.8576   18.5389   23.1038 C   0  0  0  0  0  0  0  0  0  0  0  0
   17.7738   18.3882   23.2119 H   0  0  0  0  0  0  0  0  0  0  0  0
   19.2263   19.8008   23.9237 C   0  0  0  0  0  0  0  0  0  0  0  0
   18.7005   20.6747   23.5181 H   0  0  0  0  0  0  0  0  0  0  0  0
   18.8318   19.6630   24.9387 H   0  0  0  0  0  0  0  0  0  0  0  0
   20.7448   20.0976   24.0295 C   0  0  0  0  0  0  0  0  0  0  0  0
   20.9345   20.6411   24.9649 H   0  0  0  0  0  0  0  0  0  0  0  0
   21.3068   19.1587   24.1200 H   0  0  0  0  0  0  0  0  0  0  0  0
   19.5196   17.3970   23.6385 O   0  0  0  0  0  0  0  0  0  0  0  0
   19.3546   17.4052   24.6034 H   0  0  0  0  0  0  0  0  0  0  0  0
  1  2  1  0  0  0  0
  1  3  1  0  0  0  0
  1  4  1  0  0  0  0
  4  5  1  0  0  0  0
  4  6  1  0  0  0  0
  4  7  1  0  0  0  0
  7  8  1  0  0  0  0
  7  9  1  0  0  0  0
  7 10  1  0  0  0  0
 10 11  1  0  0  0  0
 10 12  1  0  0  0  0
 10 13  1  0  0  0  0
 13 14  1  0  0  0  0
 13 15  1  0  0  0  0
 15 16  1  0  0  0  0
 15 17  1  0  0  0  0
  1 18  1  0  0  0  0
 15 18  1  0  0  0  0
 18 19  1  0  0  0  0
 18 20  1  0  0  0  0
 13 21  1  0  0  0  0
 21 22  1  0  0  0  0
M  END
> <VConfSearch Rank>
220

> <Conf_Id>
95

> <Delta U+W>
-2.289

> <U+W>
4.134

> <U>
6.373

> <W>
-2.240

> <W(PB)>
-4.254

> <W(SA)>
2.015

> <Valence>
12.093

> <Coulomb>
-8.058

> <VdW>
2.339

> <VdW6>
-9.683

> <VdW12>
12.022

> <Bond>
0.268

> <Angle>
3.005

> <Pdih>
8.820

> <Idih>
0.000

> <Tether>
0.000

$$$$
VeraChem MOL file


 22 22  0  0  0  0  0  0  0  0999 V2000     
   19.7224   17.7534   22.8881 C   0  0  0  0  0  0  0  0  0  0  0  0
   19.4242   17.2032   23.7909 H   0  0  0  0  0  0  0  0  0  0  0  0
   19.7622   17.0065   22.0835 H   0  0  0  0  0  0  0  0  0  0  0  0
   21.1438   18.3215   23.1148 C   0  0  0  0  0  0  0  0  0  0  0  0
   21.2529   18.6260   24.1645 H   0  0  0  0  0  0  0  0  0  0  0  0
   21.8630   17.5037   22.9704 H   0  0  0  0  0  0  0  0  0  0  0  0
   21.5329   19.5009   22.1934 C   0  0  0  0  0  0  0  0  0  0  0  0
   21.1290   19.3593   21.1817 H   0  0  0  0  0  0  0  0  0  0  0  0
   22.6261   19.5038   22.0877 H   0  0  0  0  0  0  0  0  0  0  0  0
   21.1107   20.8753   22.7716 C   0  0  0  0  0  0  0  0  0  0  0  0
   21.4561   20.9488   23.8109 H   0  0  0  0  0  0  0  0  0  0  0  0
   21.6485   21.6641   22.2298 H   0  0  0  0  0  0  0  0  0  0  0  0
   19.5996   21.1982   22.7286 C   0  0  0  0  0  0  0  0  0  0  0  0
   19.4527   22.1104   23.3248 H   0  0  0  0  0  0  0  0  0  0  0  0
   18.6768   20.1089   23.3304 C   0  0  0  0  0  0  0  0  0  0  0  0
   18.9592   19.9126   24.3726 H   0  0  0  0  0  0  0  0  0  0  0  0
   17.6628   20.5276   23.3683 H   0  0  0  0  0  0  0  0  0  0  0  0
   18.6195   18.7793   22.5339 C   0  0  0  0  0  0  0  0  0  0  0  0
   17.6461   18.3031   22.7123 H   0  0  0  0  0  0  0  0  0  0  0  0
   18.6466   18.9884   21.4563 H   0  0  0  0  0  0  0  0  0  0  0  0
   19.2146   21.4788   21.3863 O   0  0  0  0  0  0  0  0  0  0  0  0
   19.8365   22.1563   21.0509 H   0  0  0  0  0  0  0  0  0  0  0  0
  1  2  1  0  0  0  0
  1  3  1  0  0  0  0
  1  4  1  0  0  0  0
  4  5  1  0  0  0  0
  4  6  1  0  0  0  0
  4  7  1  0  0  0  0
  7  8  1  0  0  0  0
  7  9  1  0  0  0  0
  7 10  1  0  0  0  0
 10 11  1  0  0  0  0
 10 12  1  0  0  0  0
 10 13  1  0  0  0  0
 13 14  1  0  0  0  0
 13 15  1  0  0  0  0
 15 16  1  0  0  0  0
 15 17  1  0  0  0  0
  1 18  1  0  0  0  0
 15 18  1  0  0  0  0
 18 19  1  0  0  0  0
 18 20  1  0  0  0  0
 13 21  1  0  0  0  0
 21 22  1  0  0  0  0
M  END
> <VConfSearch Rank>
221

> <Conf_Id>
41

> <Delta U+W>
-2.114

> <U+W>
4.310

> <U>
6.598

> <W>
-2.289

> <W(PB)>
-4.294

> <W(SA)>
2.005

> <Valence>
12.082

> <Coulomb>
-7.801

> <VdW>
2.317

> <VdW6>
-9.658

> <VdW12>
11.975

> <Bond>
0.267

> <Angle>
3.051

> <Pdih>
8.764

> <Idih>
0.000

> <Tether>
0.000

$$$$
VeraChem MOL file


 22 22  0  0  0  0  0  0  0  0999 V2000     
   19.7089   17.9802   23.1711 C   0  0  0  0  0  0  0  0  0  0  0  0
   19.5858   17.0206   23.6913 H   0  0  0  0  0  0  0  0  0  0  0  0
   18.9505   17.9992   22.3763 H   0  0  0  0  0  0  0  0  0  0  0  0
   21.1318   18.0140   22.5697 C   0  0  0  0  0  0  0  0  0  0  0  0
   21.8723   18.0573   23.3798 H   0  0  0  0  0  0  0  0  0  0  0  0
   21.3137   17.0659   22.0458 H   0  0  0  0  0  0  0  0  0  0  0  0
   21.3847   19.1707   21.5781 C   0  0  0  0  0  0  0  0  0  0  0  0
   20.7917   19.0082   20.6682 H   0  0  0  0  0  0  0  0  0  0  0  0
   22.4340   19.1187   21.2582 H   0  0  0  0  0  0  0  0  0  0  0  0
   21.1155   20.5928   22.1405 C   0  0  0  0  0  0  0  0  0  0  0  0
   21.6470   20.7288   23.0909 H   0  0  0  0  0  0  0  0  0  0  0  0
   21.5624   21.3149   21.4452 H   0  0  0  0  0  0  0  0  0  0  0  0
   19.6250   20.9848   22.3103 C   0  0  0  0  0  0  0  0  0  0  0  0
   19.5953   22.0805   22.3990 H   0  0  0  0  0  0  0  0  0  0  0  0
   18.9193   20.4307   23.5752 C   0  0  0  0  0  0  0  0  0  0  0  0
   18.9657   21.2026   24.3544 H   0  0  0  0  0  0  0  0  0  0  0  0
   17.8503   20.3017   23.3609 H   0  0  0  0  0  0  0  0  0  0  0  0
   19.4637   19.1166   24.1882 C   0  0  0  0  0  0  0  0  0  0  0  0
   20.3867   19.3203   24.7477 H   0  0  0  0  0  0  0  0  0  0  0  0
   18.7374   18.7686   24.9353 H   0  0  0  0  0  0  0  0  0  0  0  0
   18.8801   20.6262   21.1495 O   0  0  0  0  0  0  0  0  0  0  0  0
   17.9621   20.9320   21.2971 H   0  0  0  0  0  0  0  0  0  0  0  0
  1  2  1  0  0  0  0
  1  3  1  0  0  0  0
  1  4  1  0  0  0  0
  4  5  1  0  0  0  0
  4  6  1  0  0  0  0
  4  7  1  0  0  0  0
  7  8  1  0  0  0  0
  7  9  1  0  0  0  0
  7 10  1  0  0  0  0
 10 11  1  0  0  0  0
 10 12  1  0  0  0  0
 10 13  1  0  0  0  0
 13 14  1  0  0  0  0
 13 15  1  0  0  0  0
 15 16  1  0  0  0  0
 15 17  1  0  0  0  0
  1 18  1  0  0  0  0
 15 18  1  0  0  0  0
 18 19  1  0  0  0  0
 18 20  1  0  0  0  0
 13 21  1  0  0  0  0
 21 22  1  0  0  0  0
M  END
> <VConfSearch Rank>
222

> <Conf_Id>
104

> <Delta U+W>
-1.172

> <U+W>
5.252

> <U>
7.482

> <W>
-2.230

> <W(PB)>
-4.220

> <W(SA)>
1.990

> <Valence>
12.309

> <Coulomb>
-7.084

> <VdW>
2.258

> <VdW6>
-9.770

> <VdW12>
12.028

> <Bond>
0.284

> <Angle>
3.491

> <Pdih>
8.535

> <Idih>
0.000

> <Tether>
0.000

$$$$
VeraChem MOL file


 22 22  0  0  0  0  0  0  0  0999 V2000     
   19.7472   18.5286   21.4507 C   0  0  0  0  0  0  0  0  0  0  0  0
   18.6923   18.8266   21.3803 H   0  0  0  0  0  0  0  0  0  0  0  0
   19.8861   17.7310   20.7080 H   0  0  0  0  0  0  0  0  0  0  0  0
   20.0622   17.9375   22.8438 C   0  0  0  0  0  0  0  0  0  0  0  0
   19.7101   16.8971   22.8707 H   0  0  0  0  0  0  0  0  0  0  0  0
   21.1505   17.8723   22.9735 H   0  0  0  0  0  0  0  0  0  0  0  0
   19.4296   18.6810   24.0474 C   0  0  0  0  0  0  0  0  0  0  0  0
   20.0445   18.4883   24.9374 H   0  0  0  0  0  0  0  0  0  0  0  0
   18.4538   18.2250   24.2635 H   0  0  0  0  0  0  0  0  0  0  0  0
   19.2089   20.2112   23.9024 C   0  0  0  0  0  0  0  0  0  0  0  0
   18.3067   20.3884   23.3027 H   0  0  0  0  0  0  0  0  0  0  0  0
   18.9778   20.6159   24.8962 H   0  0  0  0  0  0  0  0  0  0  0  0
   20.3716   21.0372   23.3058 C   0  0  0  0  0  0  0  0  0  0  0  0
   20.2325   22.0787   23.6296 H   0  0  0  0  0  0  0  0  0  0  0  0
   20.3705   21.0460   21.7604 C   0  0  0  0  0  0  0  0  0  0  0  0
   19.3959   21.4115   21.4116 H   0  0  0  0  0  0  0  0  0  0  0  0
   21.1034   21.7899   21.4219 H   0  0  0  0  0  0  0  0  0  0  0  0
   20.6809   19.6993   21.0611 C   0  0  0  0  0  0  0  0  0  0  0  0
   20.6018   19.8573   19.9769 H   0  0  0  0  0  0  0  0  0  0  0  0
   21.7270   19.4179   21.2426 H   0  0  0  0  0  0  0  0  0  0  0  0
   21.6189   20.5657   23.7915 O   0  0  0  0  0  0  0  0  0  0  0  0
   21.6315   19.6210   23.5390 H   0  0  0  0  0  0  0  0  0  0  0  0
  1  2  1  0  0  0  0
  1  3  1  0  0  0  0
  1  4  1  0  0  0  0
  4  5  1  0  0  0  0
  4  6  1  0  0  0  0
  4  7  1  0  0  0  0
  7  8  1  0  0  0  0
  7  9  1  0  0  0  0
  7 10  1  0  0  0  0
 10 11  1  0  0  0  0
 10 12  1  0  0  0  0
 10 13  1  0  0  0  0
 13 14  1  0  0  0  0
 13 15  1  0  0  0  0
 15 16  1  0  0  0  0
 15 17  1  0  0  0  0
  1 18  1  0  0  0  0
 15 18  1  0  0  0  0
 18 19  1  0  0  0  0
 18 20  1  0  0  0  0
 13 21  1  0  0  0  0
 21 22  1  0  0  0  0
M  END
> <VConfSearch Rank>
223

> <Conf_Id>
99

> <Delta U+W>
-3.852

> <U+W>
2.572

> <U>
3.922

> <W>
-1.350

> <W(PB)>
-3.345

> <W(SA)>
1.995

> <Valence>
12.571

> <Coulomb>
-10.581

> <VdW>
1.932

> <VdW6>
-10.483

> <VdW12>
12.415

> <Bond>
0.268

> <Angle>
3.728

> <Pdih>
8.575

> <Idih>
0.000

> <Tether>
0.000

$$$$
VeraChem MOL file


 22 22  0  0  0  0  0  0  0  0999 V2000     
   18.8566   19.0881   23.6973 C   0  0  0  0  0  0  0  0  0  0  0  0
   18.3715   18.3278   24.3250 H   0  0  0  0  0  0  0  0  0  0  0  0
   18.2287   19.9832   23.8009 H   0  0  0  0  0  0  0  0  0  0  0  0
   18.8289   18.5808   22.2257 C   0  0  0  0  0  0  0  0  0  0  0  0
   18.3317   17.6010   22.2163 H   0  0  0  0  0  0  0  0  0  0  0  0
   18.1877   19.2294   21.6138 H   0  0  0  0  0  0  0  0  0  0  0  0
   20.2083   18.4170   21.5379 C   0  0  0  0  0  0  0  0  0  0  0  0
   20.0621   17.8770   20.5925 H   0  0  0  0  0  0  0  0  0  0  0  0
   20.8449   17.7548   22.1379 H   0  0  0  0  0  0  0  0  0  0  0  0
   20.9719   19.7326   21.2206 C   0  0  0  0  0  0  0  0  0  0  0  0
   22.0384   19.4941   21.1184 H   0  0  0  0  0  0  0  0  0  0  0  0
   20.6575   20.0856   20.2294 H   0  0  0  0  0  0  0  0  0  0  0  0
   20.8273   20.9188   22.2056 C   0  0  0  0  0  0  0  0  0  0  0  0
   21.6014   21.6522   21.9382 H   0  0  0  0  0  0  0  0  0  0  0  0
   21.0184   20.5900   23.7068 C   0  0  0  0  0  0  0  0  0  0  0  0
   22.0904   20.4530   23.8986 H   0  0  0  0  0  0  0  0  0  0  0  0
   20.7330   21.4823   24.2798 H   0  0  0  0  0  0  0  0  0  0  0  0
   20.2601   19.3669   24.2932 C   0  0  0  0  0  0  0  0  0  0  0  0
   20.8839   18.4685   24.2075 H   0  0  0  0  0  0  0  0  0  0  0  0
   20.1520   19.5257   25.3748 H   0  0  0  0  0  0  0  0  0  0  0  0
   19.5701   21.5475   22.0123 O   0  0  0  0  0  0  0  0  0  0  0  0
   18.9209   20.8596   22.2618 H   0  0  0  0  0  0  0  0  0  0  0  0
  1  2  1  0  0  0  0
  1  3  1  0  0  0  0
  1  4  1  0  0  0  0
  4  5  1  0  0  0  0
  4  6  1  0  0  0  0
  4  7  1  0  0  0  0
  7  8  1  0  0  0  0
  7  9  1  0  0  0  0
  7 10  1  0  0  0  0
 10 11  1  0  0  0  0
 10 12  1  0  0  0  0
 10 13  1  0  0  0  0
 13 14  1  0  0  0  0
 13 15  1  0  0  0  0
 15 16  1  0  0  0  0
 15 17  1  0  0  0  0
  1 18  1  0  0  0  0
 15 18  1  0  0  0  0
 18 19  1  0  0  0  0
 18 20  1  0  0  0  0
 13 21  1  0  0  0  0
 21 22  1  0  0  0  0
M  END
> <VConfSearch Rank>
224

> <Conf_Id>
98

> <Delta U+W>
0.930

> <U+W>
7.353

> <U>
8.455

> <W>
-1.102

> <W(PB)>
-3.101

> <W(SA)>
2.000

> <Valence>
15.601

> <Coulomb>
-10.573

> <VdW>
3.427

> <VdW6>
-11.360

> <VdW12>
14.787

> <Bond>
0.471

> <Angle>
5.445

> <Pdih>
9.685

> <Idih>
0.000

> <Tether>
0.000

$$$$
VeraChem MOL file


 22 22  0  0  0  0  0  0  0  0999 V2000     
   18.4670   20.1585   23.0621 C   0  0  0  0  0  0  0  0  0  0  0  0
   18.7910   20.1360   24.1106 H   0  0  0  0  0  0  0  0  0  0  0  0
   17.4614   20.6001   23.0839 H   0  0  0  0  0  0  0  0  0  0  0  0
   18.3589   18.7121   22.5159 C   0  0  0  0  0  0  0  0  0  0  0  0
   17.6336   18.1754   23.1426 H   0  0  0  0  0  0  0  0  0  0  0  0
   17.9238   18.7314   21.5075 H   0  0  0  0  0  0  0  0  0  0  0  0
   19.6763   17.8885   22.4879 C   0  0  0  0  0  0  0  0  0  0  0  0
   20.0674   17.8389   21.4634 H   0  0  0  0  0  0  0  0  0  0  0  0
   19.4360   16.8490   22.7494 H   0  0  0  0  0  0  0  0  0  0  0  0
   20.7892   18.3965   23.4424 C   0  0  0  0  0  0  0  0  0  0  0  0
   20.3752   18.5049   24.4526 H   0  0  0  0  0  0  0  0  0  0  0  0
   21.5510   17.6105   23.5332 H   0  0  0  0  0  0  0  0  0  0  0  0
   21.4845   19.7268   23.0293 C   0  0  0  0  0  0  0  0  0  0  0  0
   21.5463   20.3678   23.9206 H   0  0  0  0  0  0  0  0  0  0  0  0
   20.7902   20.5321   21.9024 C   0  0  0  0  0  0  0  0  0  0  0  0
   21.4339   21.3752   21.6197 H   0  0  0  0  0  0  0  0  0  0  0  0
   20.7162   19.9145   20.9993 H   0  0  0  0  0  0  0  0  0  0  0  0
   19.3928   21.0995   22.2558 C   0  0  0  0  0  0  0  0  0  0  0  0
   19.5207   22.0272   22.8301 H   0  0  0  0  0  0  0  0  0  0  0  0
   18.8887   21.3892   21.3238 H   0  0  0  0  0  0  0  0  0  0  0  0
   22.8042   19.4276   22.5886 O   0  0  0  0  0  0  0  0  0  0  0  0
   23.2369   20.2841   22.3903 H   0  0  0  0  0  0  0  0  0  0  0  0
  1  2  1  0  0  0  0
  1  3  1  0  0  0  0
  1  4  1  0  0  0  0
  4  5  1  0  0  0  0
  4  6  1  0  0  0  0
  4  7  1  0  0  0  0
  7  8  1  0  0  0  0
  7  9  1  0  0  0  0
  7 10  1  0  0  0  0
 10 11  1  0  0  0  0
 10 12  1  0  0  0  0
 10 13  1  0  0  0  0
 13 14  1  0  0  0  0
 13 15  1  0  0  0  0
 15 16  1  0  0  0  0
 15 17  1  0  0  0  0
  1 18  1  0  0  0  0
 15 18  1  0  0  0  0
 18 19  1  0  0  0  0
 18 20  1  0  0  0  0
 13 21  1  0  0  0  0
 21 22  1  0  0  0  0
M  END
> <VConfSearch Rank>
225

> <Conf_Id>
141

> <Delta U+W>
0.000

> <U+W>
6.423

> <U>
8.781

> <W>
-2.358

> <W(PB)>
-4.373

> <W(SA)>
2.015

> <Valence>
13.328

> <Coulomb>
-8.387

> <VdW>
3.840

> <VdW6>
-9.744

> <VdW12>
13.584

> <Bond>
0.436

> <Angle>
3.478

> <Pdih>
9.415

> <Idih>
0.000

> <Tether>
0.000

$$$$
VeraChem MOL file


 22 22  0  0  0  0  0  0  0  0999 V2000     
   18.4915   19.9743   21.8235 C   0  0  0  0  0  0  0  0  0  0  0  0
   18.1737   20.5609   22.6962 H   0  0  0  0  0  0  0  0  0  0  0  0
   17.6955   20.0880   21.0750 H   0  0  0  0  0  0  0  0  0  0  0  0
   18.5943   18.4705   22.1750 C   0  0  0  0  0  0  0  0  0  0  0  0
   17.5823   18.0839   22.3578 H   0  0  0  0  0  0  0  0  0  0  0  0
   18.9719   17.9179   21.3039 H   0  0  0  0  0  0  0  0  0  0  0  0
   19.4667   18.1396   23.4079 C   0  0  0  0  0  0  0  0  0  0  0  0
   19.5143   17.0469   23.5103 H   0  0  0  0  0  0  0  0  0  0  0  0
   18.9678   18.5042   24.3163 H   0  0  0  0  0  0  0  0  0  0  0  0
   20.9112   18.6944   23.3548 C   0  0  0  0  0  0  0  0  0  0  0  0
   21.4838   18.2062   24.1543 H   0  0  0  0  0  0  0  0  0  0  0  0
   21.3999   18.4125   22.4132 H   0  0  0  0  0  0  0  0  0  0  0  0
   20.9702   20.2250   23.5582 C   0  0  0  0  0  0  0  0  0  0  0  0
   20.1572   20.5132   24.2399 H   0  0  0  0  0  0  0  0  0  0  0  0
   20.8297   21.0511   22.2593 C   0  0  0  0  0  0  0  0  0  0  0  0
   20.5644   22.0768   22.5462 H   0  0  0  0  0  0  0  0  0  0  0  0
   21.8080   21.1205   21.7652 H   0  0  0  0  0  0  0  0  0  0  0  0
   19.7981   20.5423   21.2215 C   0  0  0  0  0  0  0  0  0  0  0  0
   19.5491   21.3775   20.5528 H   0  0  0  0  0  0  0  0  0  0  0  0
   20.2656   19.7822   20.5809 H   0  0  0  0  0  0  0  0  0  0  0  0
   22.2143   20.5597   24.1610 O   0  0  0  0  0  0  0  0  0  0  0  0
   22.2497   20.0849   25.0177 H   0  0  0  0  0  0  0  0  0  0  0  0
  1  2  1  0  0  0  0
  1  3  1  0  0  0  0
  1  4  1  0  0  0  0
  4  5  1  0  0  0  0
  4  6  1  0  0  0  0
  4  7  1  0  0  0  0
  7  8  1  0  0  0  0
  7  9  1  0  0  0  0
  7 10  1  0  0  0  0
 10 11  1  0  0  0  0
 10 12  1  0  0  0  0
 10 13  1  0  0  0  0
 13 14  1  0  0  0  0
 13 15  1  0  0  0  0
 15 16  1  0  0  0  0
 15 17  1  0  0  0  0
  1 18  1  0  0  0  0
 15 18  1  0  0  0  0
 18 19  1  0  0  0  0
 18 20  1  0  0  0  0
 13 21  1  0  0  0  0
 21 22  1  0  0  0  0
M  END
> <VConfSearch Rank>
226

> <Conf_Id>
144

> <Delta U+W>
-3.291

> <U+W>
3.132

> <U>
5.411

> <W>
-2.279

> <W(PB)>
-4.300

> <W(SA)>
2.021

> <Valence>
11.909

> <Coulomb>
-8.733

> <VdW>
2.236

> <VdW6>
-8.936

> <VdW12>
11.172

> <Bond>
0.223

> <Angle>
2.457

> <Pdih>
9.228

> <Idih>
0.000

> <Tether>
0.000

$$$$
VeraChem MOL file


 22 22  0  0  0  0  0  0  0  0999 V2000     
   21.3824   18.6219   22.8877 C   0  0  0  0  0  0  0  0  0  0  0  0
   22.1377   17.9142   23.2561 H   0  0  0  0  0  0  0  0  0  0  0  0
   21.8405   19.1374   22.0327 H   0  0  0  0  0  0  0  0  0  0  0  0
   21.0652   19.6187   24.0269 C   0  0  0  0  0  0  0  0  0  0  0  0
   20.3340   19.1695   24.7127 H   0  0  0  0  0  0  0  0  0  0  0  0
   21.9725   19.7734   24.6267 H   0  0  0  0  0  0  0  0  0  0  0  0
   20.5584   21.0058   23.5631 C   0  0  0  0  0  0  0  0  0  0  0  0
   21.4223   21.6365   23.3126 H   0  0  0  0  0  0  0  0  0  0  0  0
   20.0699   21.4948   24.4171 H   0  0  0  0  0  0  0  0  0  0  0  0
   19.5890   21.0141   22.3554 C   0  0  0  0  0  0  0  0  0  0  0  0
   19.0659   21.9799   22.3514 H   0  0  0  0  0  0  0  0  0  0  0  0
   20.1715   20.9873   21.4255 H   0  0  0  0  0  0  0  0  0  0  0  0
   18.5538   19.8670   22.3431 C   0  0  0  0  0  0  0  0  0  0  0  0
   18.2600   19.6250   23.3744 H   0  0  0  0  0  0  0  0  0  0  0  0
   19.0865   18.5957   21.6437 C   0  0  0  0  0  0  0  0  0  0  0  0
   18.2409   17.9242   21.4432 H   0  0  0  0  0  0  0  0  0  0  0  0
   19.5005   18.8634   20.6628 H   0  0  0  0  0  0  0  0  0  0  0  0
   20.1476   17.8022   22.4425 C   0  0  0  0  0  0  0  0  0  0  0  0
   19.6747   17.3472   23.3237 H   0  0  0  0  0  0  0  0  0  0  0  0
   20.4894   16.9639   21.8203 H   0  0  0  0  0  0  0  0  0  0  0  0
   17.4061   20.3086   21.6304 O   0  0  0  0  0  0  0  0  0  0  0  0
   17.7073   20.5151   20.7216 H   0  0  0  0  0  0  0  0  0  0  0  0
  1  2  1  0  0  0  0
  1  3  1  0  0  0  0
  1  4  1  0  0  0  0
  4  5  1  0  0  0  0
  4  6  1  0  0  0  0
  4  7  1  0  0  0  0
  7  8  1  0  0  0  0
  7  9  1  0  0  0  0
  7 10  1  0  0  0  0
 10 11  1  0  0  0  0
 10 12  1  0  0  0  0
 10 13  1  0  0  0  0
 13 14  1  0  0  0  0
 13 15  1  0  0  0  0
 15 16  1  0  0  0  0
 15 17  1  0  0  0  0
  1 18  1  0  0  0  0
 15 18  1  0  0  0  0
 18 19  1  0  0  0  0
 18 20  1  0  0  0  0
 13 21  1  0  0  0  0
 21 22  1  0  0  0  0
M  END
> <VConfSearch Rank>
227

> <Conf_Id>
76

> <Delta U+W>
-3.175

> <U+W>
3.248

> <U>
5.336

> <W>
-2.088

> <W(PB)>
-4.098

> <W(SA)>
2.010

> <Valence>
12.390

> <Coulomb>
-9.270

> <VdW>
2.216

> <VdW6>
-8.967

> <VdW12>
11.183

> <Bond>
0.218

> <Angle>
2.426

> <Pdih>
9.745

> <Idih>
0.000

> <Tether>
0.000

$$$$
VeraChem MOL file


 22 22  0  0  0  0  0  0  0  0999 V2000     
   20.3523   17.7552   22.2541 C   0  0  0  0  0  0  0  0  0  0  0  0
   19.5941   17.0132   21.9690 H   0  0  0  0  0  0  0  0  0  0  0  0
   21.3205   17.2459   22.1531 H   0  0  0  0  0  0  0  0  0  0  0  0
   20.1328   18.1249   23.7406 C   0  0  0  0  0  0  0  0  0  0  0  0
   19.0566   18.1388   23.9599 H   0  0  0  0  0  0  0  0  0  0  0  0
   20.5475   17.3153   24.3565 H   0  0  0  0  0  0  0  0  0  0  0  0
   20.7650   19.4656   24.1817 C   0  0  0  0  0  0  0  0  0  0  0  0
   21.7330   19.6257   23.6875 H   0  0  0  0  0  0  0  0  0  0  0  0
   20.9785   19.4045   25.2573 H   0  0  0  0  0  0  0  0  0  0  0  0
   19.8238   20.6760   23.9555 C   0  0  0  0  0  0  0  0  0  0  0  0
   18.8431   20.4579   24.3973 H   0  0  0  0  0  0  0  0  0  0  0  0
   20.2157   21.5341   24.5170 H   0  0  0  0  0  0  0  0  0  0  0  0
   19.6214   21.1190   22.4886 C   0  0  0  0  0  0  0  0  0  0  0  0
   18.8018   21.8521   22.4890 H   0  0  0  0  0  0  0  0  0  0  0  0
   19.2211   19.9884   21.5078 C   0  0  0  0  0  0  0  0  0  0  0  0
   18.3029   19.4996   21.8583 H   0  0  0  0  0  0  0  0  0  0  0  0
   18.9595   20.4577   20.5506 H   0  0  0  0  0  0  0  0  0  0  0  0
   20.3195   18.9261   21.2430 C   0  0  0  0  0  0  0  0  0  0  0  0
   20.1672   18.5021   20.2413 H   0  0  0  0  0  0  0  0  0  0  0  0
   21.3067   19.4053   21.2087 H   0  0  0  0  0  0  0  0  0  0  0  0
   20.8001   21.7721   22.0281 O   0  0  0  0  0  0  0  0  0  0  0  0
   20.6490   21.9883   21.0854 H   0  0  0  0  0  0  0  0  0  0  0  0
  1  2  1  0  0  0  0
  1  3  1  0  0  0  0
  1  4  1  0  0  0  0
  4  5  1  0  0  0  0
  4  6  1  0  0  0  0
  4  7  1  0  0  0  0
  7  8  1  0  0  0  0
  7  9  1  0  0  0  0
  7 10  1  0  0  0  0
 10 11  1  0  0  0  0
 10 12  1  0  0  0  0
 10 13  1  0  0  0  0
 13 14  1  0  0  0  0
 13 15  1  0  0  0  0
 15 16  1  0  0  0  0
 15 17  1  0  0  0  0
  1 18  1  0  0  0  0
 15 18  1  0  0  0  0
 18 19  1  0  0  0  0
 18 20  1  0  0  0  0
 13 21  1  0  0  0  0
 21 22  1  0  0  0  0
M  END
> <VConfSearch Rank>
228

> <Conf_Id>
95

> <Delta U+W>
-2.289

> <U+W>
4.134

> <U>
6.373

> <W>
-2.240

> <W(PB)>
-4.254

> <W(SA)>
2.015

> <Valence>
12.093

> <Coulomb>
-8.058

> <VdW>
2.339

> <VdW6>
-9.683

> <VdW12>
12.022

> <Bond>
0.268

> <Angle>
3.005

> <Pdih>
8.820

> <Idih>
0.000

> <Tether>
0.000

$$$$
VeraChem MOL file


 22 22  0  0  0  0  0  0  0  0999 V2000     
   21.6061   19.5505   23.8068 C   0  0  0  0  0  0  0  0  0  0  0  0
   22.4658   18.8733   23.7125 H   0  0  0  0  0  0  0  0  0  0  0  0
   21.8407   20.2143   24.6501 H   0  0  0  0  0  0  0  0  0  0  0  0
   20.3610   18.7050   24.1662 C   0  0  0  0  0  0  0  0  0  0  0  0
   20.4124   17.7387   23.6464 H   0  0  0  0  0  0  0  0  0  0  0  0
   20.4115   18.4649   25.2370 H   0  0  0  0  0  0  0  0  0  0  0  0
   19.0020   19.3793   23.8664 C   0  0  0  0  0  0  0  0  0  0  0  0
   19.0420   20.4563   24.0793 H   0  0  0  0  0  0  0  0  0  0  0  0
   18.2551   18.9601   24.5541 H   0  0  0  0  0  0  0  0  0  0  0  0
   18.5115   19.1178   22.4199 C   0  0  0  0  0  0  0  0  0  0  0  0
   18.5653   18.0414   22.2117 H   0  0  0  0  0  0  0  0  0  0  0  0
   17.4455   19.3730   22.3593 H   0  0  0  0  0  0  0  0  0  0  0  0
   19.2583   19.8763   21.2989 C   0  0  0  0  0  0  0  0  0  0  0  0
   18.9134   19.4528   20.3446 H   0  0  0  0  0  0  0  0  0  0  0  0
   20.8012   19.7377   21.3260 C   0  0  0  0  0  0  0  0  0  0  0  0
   21.0831   18.6783   21.2742 H   0  0  0  0  0  0  0  0  0  0  0  0
   21.1840   20.1952   20.4046 H   0  0  0  0  0  0  0  0  0  0  0  0
   21.5036   20.4182   22.5297 C   0  0  0  0  0  0  0  0  0  0  0  0
   22.5221   20.6996   22.2305 H   0  0  0  0  0  0  0  0  0  0  0  0
   21.0003   21.3642   22.7693 H   0  0  0  0  0  0  0  0  0  0  0  0
   18.8899   21.2518   21.3329 O   0  0  0  0  0  0  0  0  0  0  0  0
   17.9115   21.2812   21.3312 H   0  0  0  0  0  0  0  0  0  0  0  0
  1  2  1  0  0  0  0
  1  3  1  0  0  0  0
  1  4  1  0  0  0  0
  4  5  1  0  0  0  0
  4  6  1  0  0  0  0
  4  7  1  0  0  0  0
  7  8  1  0  0  0  0
  7  9  1  0  0  0  0
  7 10  1  0  0  0  0
 10 11  1  0  0  0  0
 10 12  1  0  0  0  0
 10 13  1  0  0  0  0
 13 14  1  0  0  0  0
 13 15  1  0  0  0  0
 15 16  1  0  0  0  0
 15 17  1  0  0  0  0
  1 18  1  0  0  0  0
 15 18  1  0  0  0  0
 18 19  1  0  0  0  0
 18 20  1  0  0  0  0
 13 21  1  0  0  0  0
 21 22  1  0  0  0  0
M  END
> <VConfSearch Rank>
229

> <Conf_Id>
41

> <Delta U+W>
-2.114

> <U+W>
4.310

> <U>
6.598

> <W>
-2.289

> <W(PB)>
-4.294

> <W(SA)>
2.005

> <Valence>
12.082

> <Coulomb>
-7.801

> <VdW>
2.317

> <VdW6>
-9.658

> <VdW12>
11.975

> <Bond>
0.267

> <Angle>
3.051

> <Pdih>
8.764

> <Idih>
0.000

> <Tether>
0.000

$$$$
VeraChem MOL file


 22 22  0  0  0  0  0  0  0  0999 V2000     
   21.6414   19.4843   23.3094 C   0  0  0  0  0  0  0  0  0  0  0  0
   22.6818   19.6883   23.5968 H   0  0  0  0  0  0  0  0  0  0  0  0
   21.2964   18.6690   23.9601 H   0  0  0  0  0  0  0  0  0  0  0  0
   21.6368   19.0413   21.8292 C   0  0  0  0  0  0  0  0  0  0  0  0
   21.9245   19.8880   21.1912 H   0  0  0  0  0  0  0  0  0  0  0  0
   22.4160   18.2799   21.6885 H   0  0  0  0  0  0  0  0  0  0  0  0
   20.2951   18.4569   21.3357 C   0  0  0  0  0  0  0  0  0  0  0  0
   20.1131   17.4928   21.8289 H   0  0  0  0  0  0  0  0  0  0  0  0
   20.3994   18.2254   20.2672 H   0  0  0  0  0  0  0  0  0  0  0  0
   19.0644   19.3864   21.5161 C   0  0  0  0  0  0  0  0  0  0  0  0
   19.2745   20.3763   21.0914 H   0  0  0  0  0  0  0  0  0  0  0  0
   18.2452   18.9734   20.9137 H   0  0  0  0  0  0  0  0  0  0  0  0
   18.5342   19.5374   22.9653 C   0  0  0  0  0  0  0  0  0  0  0  0
   17.5140   19.9403   22.8874 H   0  0  0  0  0  0  0  0  0  0  0  0
   19.3177   20.5204   23.8736 C   0  0  0  0  0  0  0  0  0  0  0  0
   18.8089   21.4925   23.8387 H   0  0  0  0  0  0  0  0  0  0  0  0
   19.2330   20.1883   24.9167 H   0  0  0  0  0  0  0  0  0  0  0  0
   20.8127   20.7652   23.5516 C   0  0  0  0  0  0  0  0  0  0  0  0
   20.9030   21.4355   22.6862 H   0  0  0  0  0  0  0  0  0  0  0  0
   21.2525   21.3136   24.3957 H   0  0  0  0  0  0  0  0  0  0  0  0
   18.4474   18.2640   23.5993 O   0  0  0  0  0  0  0  0  0  0  0  0
   18.0718   18.4167   24.4901 H   0  0  0  0  0  0  0  0  0  0  0  0
  1  2  1  0  0  0  0
  1  3  1  0  0  0  0
  1  4  1  0  0  0  0
  4  5  1  0  0  0  0
  4  6  1  0  0  0  0
  4  7  1  0  0  0  0
  7  8  1  0  0  0  0
  7  9  1  0  0  0  0
  7 10  1  0  0  0  0
 10 11  1  0  0  0  0
 10 12  1  0  0  0  0
 10 13  1  0  0  0  0
 13 14  1  0  0  0  0
 13 15  1  0  0  0  0
 15 16  1  0  0  0  0
 15 17  1  0  0  0  0
  1 18  1  0  0  0  0
 15 18  1  0  0  0  0
 18 19  1  0  0  0  0
 18 20  1  0  0  0  0
 13 21  1  0  0  0  0
 21 22  1  0  0  0  0
M  END
> <VConfSearch Rank>
230

> <Conf_Id>
104

> <Delta U+W>
-1.172

> <U+W>
5.252

> <U>
7.482

> <W>
-2.230

> <W(PB)>
-4.220

> <W(SA)>
1.990

> <Valence>
12.309

> <Coulomb>
-7.084

> <VdW>
2.258

> <VdW6>
-9.770

> <VdW12>
12.028

> <Bond>
0.284

> <Angle>
3.491

> <Pdih>
8.535

> <Idih>
0.000

> <Tether>
0.000

$$$$
VeraChem MOL file


 22 22  0  0  0  0  0  0  0  0999 V2000     
   21.0021   18.2893   22.2951 C   0  0  0  0  0  0  0  0  0  0  0  0
   21.2402   18.6697   21.2925 H   0  0  0  0  0  0  0  0  0  0  0  0
   21.5059   17.3164   22.3766 H   0  0  0  0  0  0  0  0  0  0  0  0
   19.4828   18.0491   22.4481 C   0  0  0  0  0  0  0  0  0  0  0  0
   19.2286   17.0950   21.9662 H   0  0  0  0  0  0  0  0  0  0  0  0
   19.2427   17.9038   23.5095 H   0  0  0  0  0  0  0  0  0  0  0  0
   18.5659   19.1422   21.8431 C   0  0  0  0  0  0  0  0  0  0  0  0
   17.6039   19.1221   22.3738 H   0  0  0  0  0  0  0  0  0  0  0  0
   18.3321   18.8647   20.8062 H   0  0  0  0  0  0  0  0  0  0  0  0
   19.1083   20.5971   21.8269 C   0  0  0  0  0  0  0  0  0  0  0  0
   19.8125   20.7082   20.9922 H   0  0  0  0  0  0  0  0  0  0  0  0
   18.2724   21.2678   21.5892 H   0  0  0  0  0  0  0  0  0  0  0  0
   19.7845   21.1112   23.1186 C   0  0  0  0  0  0  0  0  0  0  0  0
   19.7454   22.2097   23.0931 H   0  0  0  0  0  0  0  0  0  0  0  0
   21.2765   20.7194   23.2119 C   0  0  0  0  0  0  0  0  0  0  0  0
   21.7926   21.0840   22.3143 H   0  0  0  0  0  0  0  0  0  0  0  0
   21.7223   21.2675   24.0522 H   0  0  0  0  0  0  0  0  0  0  0  0
   21.5857   19.2124   23.3912 C   0  0  0  0  0  0  0  0  0  0  0  0
   22.6775   19.0916   23.3983 H   0  0  0  0  0  0  0  0  0  0  0  0
   21.2454   18.8775   24.3804 H   0  0  0  0  0  0  0  0  0  0  0  0
   19.0851   20.6512   24.2646 O   0  0  0  0  0  0  0  0  0  0  0  0
   19.0913   19.6776   24.1729 H   0  0  0  0  0  0  0  0  0  0  0  0
  1  2  1  0  0  0  0
  1  3  1  0  0  0  0
  1  4  1  0  0  0  0
  4  5  1  0  0  0  0
  4  6  1  0  0  0  0
  4  7  1  0  0  0  0
  7  8  1  0  0  0  0
  7  9  1  0  0  0  0
  7 10  1  0  0  0  0
 10 11  1  0  0  0  0
 10 12  1  0  0  0  0
 10 13  1  0  0  0  0
 13 14  1  0  0  0  0
 13 15  1  0  0  0  0
 15 16  1  0  0  0  0
 15 17  1  0  0  0  0
  1 18  1  0  0  0  0
 15 18  1  0  0  0  0
 18 19  1  0  0  0  0
 18 20  1  0  0  0  0
 13 21  1  0  0  0  0
 21 22  1  0  0  0  0
M  END
> <VConfSearch Rank>
231

> <Conf_Id>
99

> <Delta U+W>
-3.852

> <U+W>
2.572

> <U>
3.922

> <W>
-1.350

> <W(PB)>
-3.345

> <W(SA)>
1.995

> <Valence>
12.571

> <Coulomb>
-10.581

> <VdW>
1.932

> <VdW6>
-10.483

> <VdW12>
12.415

> <Bond>
0.268

> <Angle>
3.728

> <Pdih>
8.575

> <Idih>
0.000

> <Tether>
0.000

$$$$
VeraChem MOL file


 22 22  0  0  0  0  0  0  0  0999 V2000     
   20.1175   18.7704   24.1268 C   0  0  0  0  0  0  0  0  0  0  0  0
   20.6605   18.3181   24.9682 H   0  0  0  0  0  0  0  0  0  0  0  0
   19.0554   18.6181   24.3607 H   0  0  0  0  0  0  0  0  0  0  0  0
   20.5001   17.9883   22.8361 C   0  0  0  0  0  0  0  0  0  0  0  0
   21.2085   17.1975   23.1188 H   0  0  0  0  0  0  0  0  0  0  0  0
   19.6238   17.4560   22.4425 H   0  0  0  0  0  0  0  0  0  0  0  0
   21.1516   18.8233   21.7042 C   0  0  0  0  0  0  0  0  0  0  0  0
   21.5445   18.1322   20.9461 H   0  0  0  0  0  0  0  0  0  0  0  0
   22.0379   19.3421   22.0900 H   0  0  0  0  0  0  0  0  0  0  0  0
   20.2210   19.8389   20.9848 C   0  0  0  0  0  0  0  0  0  0  0  0
   20.8492   20.6081   20.5175 H   0  0  0  0  0  0  0  0  0  0  0  0
   19.7246   19.3241   20.1514 H   0  0  0  0  0  0  0  0  0  0  0  0
   19.1225   20.5432   21.8187 C   0  0  0  0  0  0  0  0  0  0  0  0
   18.7344   21.3679   21.2039 H   0  0  0  0  0  0  0  0  0  0  0  0
   19.5744   21.1600   23.1654 C   0  0  0  0  0  0  0  0  0  0  0  0
   20.1259   22.0855   22.9558 H   0  0  0  0  0  0  0  0  0  0  0  0
   18.6711   21.4762   23.7040 H   0  0  0  0  0  0  0  0  0  0  0  0
   20.4352   20.2875   24.1207 C   0  0  0  0  0  0  0  0  0  0  0  0
   21.4997   20.4422   23.9051 H   0  0  0  0  0  0  0  0  0  0  0  0
   20.3012   20.6736   25.1404 H   0  0  0  0  0  0  0  0  0  0  0  0
   18.0465   19.6460   22.0432 O   0  0  0  0  0  0  0  0  0  0  0  0
   18.4403   18.9367   22.5898 H   0  0  0  0  0  0  0  0  0  0  0  0
  1  2  1  0  0  0  0
  1  3  1  0  0  0  0
  1  4  1  0  0  0  0
  4  5  1  0  0  0  0
  4  6  1  0  0  0  0
  4  7  1  0  0  0  0
  7  8  1  0  0  0  0
  7  9  1  0  0  0  0
  7 10  1  0  0  0  0
 10 11  1  0  0  0  0
 10 12  1  0  0  0  0
 10 13  1  0  0  0  0
 13 14  1  0  0  0  0
 13 15  1  0  0  0  0
 15 16  1  0  0  0  0
 15 17  1  0  0  0  0
  1 18  1  0  0  0  0
 15 18  1  0  0  0  0
 18 19  1  0  0  0  0
 18 20  1  0  0  0  0
 13 21  1  0  0  0  0
 21 22  1  0  0  0  0
M  END
> <VConfSearch Rank>
232

> <Conf_Id>
98

> <Delta U+W>
0.930

> <U+W>
7.353

> <U>
8.455

> <W>
-1.102

> <W(PB)>
-3.101

> <W(SA)>
2.000

> <Valence>
15.601

> <Coulomb>
-10.573

> <VdW>
3.427

> <VdW6>
-11.360

> <VdW12>
14.787

> <Bond>
0.471

> <Angle>
5.445

> <Pdih>
9.685

> <Idih>
0.000

> <Tether>
0.000

$$$$
VeraChem MOL file


 22 22  0  0  0  0  0  0  0  0999 V2000     
   18.4758   19.6573   21.9016 C   0  0  0  0  0  0  0  0  0  0  0  0
   18.5568   18.5856   21.6786 H   0  0  0  0  0  0  0  0  0  0  0  0
   17.4838   19.9511   21.5324 H   0  0  0  0  0  0  0  0  0  0  0  0
   19.5503   20.4408   21.1057 C   0  0  0  0  0  0  0  0  0  0  0  0
   19.3794   20.2449   20.0383 H   0  0  0  0  0  0  0  0  0  0  0  0
   19.3927   21.5197   21.2390 H   0  0  0  0  0  0  0  0  0  0  0  0
   21.0308   20.0972   21.4292 C   0  0  0  0  0  0  0  0  0  0  0  0
   21.4710   20.8830   22.0569 H   0  0  0  0  0  0  0  0  0  0  0  0
   21.6028   20.1305   20.4920 H   0  0  0  0  0  0  0  0  0  0  0  0
   21.2535   18.7152   22.0987 C   0  0  0  0  0  0  0  0  0  0  0  0
   20.7568   17.9413   21.5003 H   0  0  0  0  0  0  0  0  0  0  0  0
   22.3231   18.4724   22.0411 H   0  0  0  0  0  0  0  0  0  0  0  0
   20.7881   18.5939   23.5794 C   0  0  0  0  0  0  0  0  0  0  0  0
   20.2288   17.6528   23.6827 H   0  0  0  0  0  0  0  0  0  0  0  0
   19.8962   19.7463   24.1053 C   0  0  0  0  0  0  0  0  0  0  0  0
   19.7380   19.6099   25.1830 H   0  0  0  0  0  0  0  0  0  0  0  0
   20.4319   20.6988   24.0141 H   0  0  0  0  0  0  0  0  0  0  0  0
   18.5058   19.8696   23.4335 C   0  0  0  0  0  0  0  0  0  0  0  0
   17.8233   19.1414   23.8927 H   0  0  0  0  0  0  0  0  0  0  0  0
   18.0922   20.8598   23.6683 H   0  0  0  0  0  0  0  0  0  0  0  0
   21.9416   18.5340   24.4108 O   0  0  0  0  0  0  0  0  0  0  0  0
   21.6225   18.4003   25.3276 H   0  0  0  0  0  0  0  0  0  0  0  0
  1  2  1  0  0  0  0
  1  3  1  0  0  0  0
  1  4  1  0  0  0  0
  4  5  1  0  0  0  0
  4  6  1  0  0  0  0
  4  7  1  0  0  0  0
  7  8  1  0  0  0  0
  7  9  1  0  0  0  0
  7 10  1  0  0  0  0
 10 11  1  0  0  0  0
 10 12  1  0  0  0  0
 10 13  1  0  0  0  0
 13 14  1  0  0  0  0
 13 15  1  0  0  0  0
 15 16  1  0  0  0  0
 15 17  1  0  0  0  0
  1 18  1  0  0  0  0
 15 18  1  0  0  0  0
 18 19  1  0  0  0  0
 18 20  1  0  0  0  0
 13 21  1  0  0  0  0
 21 22  1  0  0  0  0
M  END
> <VConfSearch Rank>
233

> <Conf_Id>
141

> <Delta U+W>
0.000

> <U+W>
6.423

> <U>
8.781

> <W>
-2.358

> <W(PB)>
-4.373

> <W(SA)>
2.015

> <Valence>
13.328

> <Coulomb>
-8.387

> <VdW>
3.840

> <VdW6>
-9.744

> <VdW12>
13.584

> <Bond>
0.436

> <Angle>
3.478

> <Pdih>
9.415

> <Idih>
0.000

> <Tether>
0.000

$$$$
VeraChem MOL file


 22 22  0  0  0  0  0  0  0  0999 V2000     
   19.0534   19.3972   24.1237 C   0  0  0  0  0  0  0  0  0  0  0  0
   19.9949   19.2743   24.6762 H   0  0  0  0  0  0  0  0  0  0  0  0
   18.2527   19.3538   24.8747 H   0  0  0  0  0  0  0  0  0  0  0  0
   18.8346   18.2261   23.1356 C   0  0  0  0  0  0  0  0  0  0  0  0
   18.6461   17.3112   23.7137 H   0  0  0  0  0  0  0  0  0  0  0  0
   17.9196   18.4059   22.5548 H   0  0  0  0  0  0  0  0  0  0  0  0
   20.0087   17.9517   22.1679 C   0  0  0  0  0  0  0  0  0  0  0  0
   19.7056   17.1503   21.4804 H   0  0  0  0  0  0  0  0  0  0  0  0
   20.8625   17.5542   22.7336 H   0  0  0  0  0  0  0  0  0  0  0  0
   20.4669   19.1723   21.3328 C   0  0  0  0  0  0  0  0  0  0  0  0
   21.1283   18.8017   20.5386 H   0  0  0  0  0  0  0  0  0  0  0  0
   19.6117   19.6377   20.8258 H   0  0  0  0  0  0  0  0  0  0  0  0
   21.2315   20.2182   22.1750 C   0  0  0  0  0  0  0  0  0  0  0  0
   21.7865   19.6873   22.9618 H   0  0  0  0  0  0  0  0  0  0  0  0
   20.3336   21.2813   22.8479 C   0  0  0  0  0  0  0  0  0  0  0  0
   20.9189   21.7498   23.6496 H   0  0  0  0  0  0  0  0  0  0  0  0
   20.1156   22.0813   22.1277 H   0  0  0  0  0  0  0  0  0  0  0  0
   18.9911   20.7824   23.4386 C   0  0  0  0  0  0  0  0  0  0  0  0
   18.6443   21.5263   24.1687 H   0  0  0  0  0  0  0  0  0  0  0  0
   18.2264   20.7657   22.6501 H   0  0  0  0  0  0  0  0  0  0  0  0
   22.1599   20.8932   21.3349 O   0  0  0  0  0  0  0  0  0  0  0  0
   22.7663   20.2106   20.9786 H   0  0  0  0  0  0  0  0  0  0  0  0
  1  2  1  0  0  0  0
  1  3  1  0  0  0  0
  1  4  1  0  0  0  0
  4  5  1  0  0  0  0
  4  6  1  0  0  0  0
  4  7  1  0  0  0  0
  7  8  1  0  0  0  0
  7  9  1  0  0  0  0
  7 10  1  0  0  0  0
 10 11  1  0  0  0  0
 10 12  1  0  0  0  0
 10 13  1  0  0  0  0
 13 14  1  0  0  0  0
 13 15  1  0  0  0  0
 15 16  1  0  0  0  0
 15 17  1  0  0  0  0
  1 18  1  0  0  0  0
 15 18  1  0  0  0  0
 18 19  1  0  0  0  0
 18 20  1  0  0  0  0
 13 21  1  0  0  0  0
 21 22  1  0  0  0  0
M  END
> <VConfSearch Rank>
234

> <Conf_Id>
144

> <Delta U+W>
-3.291

> <U+W>
3.132

> <U>
5.411

> <W>
-2.279

> <W(PB)>
-4.300

> <W(SA)>
2.021

> <Valence>
11.909

> <Coulomb>
-8.733

> <VdW>
2.236

> <VdW6>
-8.936

> <VdW12>
11.172

> <Bond>
0.223

> <Angle>
2.457

> <Pdih>
9.228

> <Idih>
0.000

> <Tether>
0.000

$$$$
VeraChem MOL file


 22 22  0  0  0  0  0  0  0  0999 V2000     
   19.5828   19.6914   20.9632 C   0  0  0  0  0  0  0  0  0  0  0  0
   19.1664   19.5617   19.9549 H   0  0  0  0  0  0  0  0  0  0  0  0
   20.3175   20.5045   20.8863 H   0  0  0  0  0  0  0  0  0  0  0  0
   20.2679   18.3665   21.3720 C   0  0  0  0  0  0  0  0  0  0  0  0
   19.5124   17.6675   21.7559 H   0  0  0  0  0  0  0  0  0  0  0  0
   20.6800   17.8875   20.4732 H   0  0  0  0  0  0  0  0  0  0  0  0
   21.4135   18.5107   22.4029 C   0  0  0  0  0  0  0  0  0  0  0  0
   22.3395   18.7740   21.8737 H   0  0  0  0  0  0  0  0  0  0  0  0
   21.5965   17.5246   22.8514 H   0  0  0  0  0  0  0  0  0  0  0  0
   21.1935   19.5456   23.5336 C   0  0  0  0  0  0  0  0  0  0  0  0
   21.8951   19.3104   24.3454 H   0  0  0  0  0  0  0  0  0  0  0  0
   21.4802   20.5414   23.1716 H   0  0  0  0  0  0  0  0  0  0  0  0
   19.7551   19.6010   24.0953 C   0  0  0  0  0  0  0  0  0  0  0  0
   19.3149   18.5937   24.0802 H   0  0  0  0  0  0  0  0  0  0  0  0
   18.8488   20.5749   23.3085 C   0  0  0  0  0  0  0  0  0  0  0  0
   17.9393   20.7608   23.8955 H   0  0  0  0  0  0  0  0  0  0  0  0
   19.3513   21.5460   23.2121 H   0  0  0  0  0  0  0  0  0  0  0  0
   18.4196   20.0843   21.9053 C   0  0  0  0  0  0  0  0  0  0  0  0
   17.7328   19.2335   22.0115 H   0  0  0  0  0  0  0  0  0  0  0  0
   17.8356   20.8823   21.4268 H   0  0  0  0  0  0  0  0  0  0  0  0
   19.8180   20.0543   25.4410 O   0  0  0  0  0  0  0  0  0  0  0  0
   20.2152   20.9491   25.4131 H   0  0  0  0  0  0  0  0  0  0  0  0
  1  2  1  0  0  0  0
  1  3  1  0  0  0  0
  1  4  1  0  0  0  0
  4  5  1  0  0  0  0
  4  6  1  0  0  0  0
  4  7  1  0  0  0  0
  7  8  1  0  0  0  0
  7  9  1  0  0  0  0
  7 10  1  0  0  0  0
 10 11  1  0  0  0  0
 10 12  1  0  0  0  0
 10 13  1  0  0  0  0
 13 14  1  0  0  0  0
 13 15  1  0  0  0  0
 15 16  1  0  0  0  0
 15 17  1  0  0  0  0
  1 18  1  0  0  0  0
 15 18  1  0  0  0  0
 18 19  1  0  0  0  0
 18 20  1  0  0  0  0
 13 21  1  0  0  0  0
 21 22  1  0  0  0  0
M  END
> <VConfSearch Rank>
235

> <Conf_Id>
76

> <Delta U+W>
-3.175

> <U+W>
3.248

> <U>
5.336

> <W>
-2.088

> <W(PB)>
-4.098

> <W(SA)>
2.010

> <Valence>
12.390

> <Coulomb>
-9.270

> <VdW>
2.216

> <VdW6>
-8.967

> <VdW12>
11.183

> <Bond>
0.218

> <Angle>
2.426

> <Pdih>
9.745

> <Idih>
0.000

> <Tether>
0.000

$$$$
VeraChem MOL file


 22 22  0  0  0  0  0  0  0  0999 V2000     
   18.8902   18.6708   23.8461 C   0  0  0  0  0  0  0  0  0  0  0  0
   19.0006   18.5357   24.9307 H   0  0  0  0  0  0  0  0  0  0  0  0
   17.9072   18.2513   23.5920 H   0  0  0  0  0  0  0  0  0  0  0  0
   19.9879   17.8390   23.1405 C   0  0  0  0  0  0  0  0  0  0  0  0
   20.9105   17.8697   23.7357 H   0  0  0  0  0  0  0  0  0  0  0  0
   19.6713   16.7870   23.1439 H   0  0  0  0  0  0  0  0  0  0  0  0
   20.2989   18.2652   21.6869 C   0  0  0  0  0  0  0  0  0  0  0  0
   19.3835   18.5700   21.1616 H   0  0  0  0  0  0  0  0  0  0  0  0
   20.6811   17.3875   21.1485 H   0  0  0  0  0  0  0  0  0  0  0  0
   21.3771   19.3755   21.6048 C   0  0  0  0  0  0  0  0  0  0  0  0
   22.2507   19.0746   22.1971 H   0  0  0  0  0  0  0  0  0  0  0  0
   21.7328   19.4424   20.5682 H   0  0  0  0  0  0  0  0  0  0  0  0
   20.9373   20.7890   22.0496 C   0  0  0  0  0  0  0  0  0  0  0  0
   21.8485   21.4019   22.1045 H   0  0  0  0  0  0  0  0  0  0  0  0
   20.2555   20.8604   23.4390 C   0  0  0  0  0  0  0  0  0  0  0  0
   20.9234   20.4423   24.2031 H   0  0  0  0  0  0  0  0  0  0  0  0
   20.1388   21.9210   23.6964 H   0  0  0  0  0  0  0  0  0  0  0  0
   18.8624   20.1842   23.5251 C   0  0  0  0  0  0  0  0  0  0  0  0
   18.2746   20.6838   24.3069 H   0  0  0  0  0  0  0  0  0  0  0  0
   18.3056   20.3486   22.5932 H   0  0  0  0  0  0  0  0  0  0  0  0
   20.0847   21.3499   21.0564 O   0  0  0  0  0  0  0  0  0  0  0  0
   19.7896   22.2177   21.4000 H   0  0  0  0  0  0  0  0  0  0  0  0
  1  2  1  0  0  0  0
  1  3  1  0  0  0  0
  1  4  1  0  0  0  0
  4  5  1  0  0  0  0
  4  6  1  0  0  0  0
  4  7  1  0  0  0  0
  7  8  1  0  0  0  0
  7  9  1  0  0  0  0
  7 10  1  0  0  0  0
 10 11  1  0  0  0  0
 10 12  1  0  0  0  0
 10 13  1  0  0  0  0
 13 14  1  0  0  0  0
 13 15  1  0  0  0  0
 15 16  1  0  0  0  0
 15 17  1  0  0  0  0
  1 18  1  0  0  0  0
 15 18  1  0  0  0  0
 18 19  1  0  0  0  0
 18 20  1  0  0  0  0
 13 21  1  0  0  0  0
 21 22  1  0  0  0  0
M  END
> <VConfSearch Rank>
236

> <Conf_Id>
95

> <Delta U+W>
-2.289

> <U+W>
4.134

> <U>
6.373

> <W>
-2.240

> <W(PB)>
-4.254

> <W(SA)>
2.015

> <Valence>
12.093

> <Coulomb>
-8.058

> <VdW>
2.339

> <VdW6>
-9.683

> <VdW12>
12.022

> <Bond>
0.268

> <Angle>
3.005

> <Pdih>
8.820

> <Idih>
0.000

> <Tether>
0.000

$$$$
VeraChem MOL file


 22 22  0  0  0  0  0  0  0  0999 V2000     
   20.7731   21.1262   21.7687 C   0  0  0  0  0  0  0  0  0  0  0  0
   21.1447   22.0709   22.1886 H   0  0  0  0  0  0  0  0  0  0  0  0
   20.9411   21.1952   20.6853 H   0  0  0  0  0  0  0  0  0  0  0  0
   19.2512   21.0435   22.0354 C   0  0  0  0  0  0  0  0  0  0  0  0
   19.0265   21.4882   23.0143 H   0  0  0  0  0  0  0  0  0  0  0  0
   18.7427   21.6817   21.2998 H   0  0  0  0  0  0  0  0  0  0  0  0
   18.6500   19.6204   21.9662 C   0  0  0  0  0  0  0  0  0  0  0  0
   19.1229   19.0322   21.1679 H   0  0  0  0  0  0  0  0  0  0  0  0
   17.5906   19.7116   21.6911 H   0  0  0  0  0  0  0  0  0  0  0  0
   18.7233   18.8742   23.3223 C   0  0  0  0  0  0  0  0  0  0  0  0
   18.3214   19.5231   24.1112 H   0  0  0  0  0  0  0  0  0  0  0  0
   18.0476   18.0099   23.2843 H   0  0  0  0  0  0  0  0  0  0  0  0
   20.1229   18.3797   23.7540 C   0  0  0  0  0  0  0  0  0  0  0  0
   20.0318   18.0378   24.7951 H   0  0  0  0  0  0  0  0  0  0  0  0
   21.2381   19.4548   23.7251 C   0  0  0  0  0  0  0  0  0  0  0  0
   20.9583   20.3022   24.3639 H   0  0  0  0  0  0  0  0  0  0  0  0
   22.1285   19.0108   24.1888 H   0  0  0  0  0  0  0  0  0  0  0  0
   21.6316   19.9591   22.3122 C   0  0  0  0  0  0  0  0  0  0  0  0
   22.6778   20.2924   22.3355 H   0  0  0  0  0  0  0  0  0  0  0  0
   21.6091   19.1250   21.5985 H   0  0  0  0  0  0  0  0  0  0  0  0
   20.4977   17.2640   22.9518 O   0  0  0  0  0  0  0  0  0  0  0  0
   19.7555   16.6270   22.9914 H   0  0  0  0  0  0  0  0  0  0  0  0
  1  2  1  0  0  0  0
  1  3  1  0  0  0  0
  1  4  1  0  0  0  0
  4  5  1  0  0  0  0
  4  6  1  0  0  0  0
  4  7  1  0  0  0  0
  7  8  1  0  0  0  0
  7  9  1  0  0  0  0
  7 10  1  0  0  0  0
 10 11  1  0  0  0  0
 10 12  1  0  0  0  0
 10 13  1  0  0  0  0
 13 14  1  0  0  0  0
 13 15  1  0  0  0  0
 15 16  1  0  0  0  0
 15 17  1  0  0  0  0
  1 18  1  0  0  0  0
 15 18  1  0  0  0  0
 18 19  1  0  0  0  0
 18 20  1  0  0  0  0
 13 21  1  0  0  0  0
 21 22  1  0  0  0  0
M  END
> <VConfSearch Rank>
237

> <Conf_Id>
41

> <Delta U+W>
-2.114

> <U+W>
4.310

> <U>
6.598

> <W>
-2.289

> <W(PB)>
-4.294

> <W(SA)>
2.005

> <Valence>
12.082

> <Coulomb>
-7.801

> <VdW>
2.317

> <VdW6>
-9.658

> <VdW12>
11.975

> <Bond>
0.267

> <Angle>
3.051

> <Pdih>
8.764

> <Idih>
0.000

> <Tether>
0.000

$$$$
VeraChem MOL file


 22 22  0  0  0  0  0  0  0  0999 V2000     
   18.9157   18.3540   22.7927 C   0  0  0  0  0  0  0  0  0  0  0  0
   18.0985   17.6782   23.0791 H   0  0  0  0  0  0  0  0  0  0  0  0
   19.0021   18.2869   21.6994 H   0  0  0  0  0  0  0  0  0  0  0  0
   20.2077   17.8510   23.4748 C   0  0  0  0  0  0  0  0  0  0  0  0
   20.1251   17.9843   24.5620 H   0  0  0  0  0  0  0  0  0  0  0  0
   20.2927   16.7683   23.3098 H   0  0  0  0  0  0  0  0  0  0  0  0
   21.5050   18.5203   22.9706 C   0  0  0  0  0  0  0  0  0  0  0  0
   21.6973   18.2103   21.9348 H   0  0  0  0  0  0  0  0  0  0  0  0
   22.3424   18.1200   23.5576 H   0  0  0  0  0  0  0  0  0  0  0  0
   21.5319   20.0694   23.0750 C   0  0  0  0  0  0  0  0  0  0  0  0
   21.2636   20.3831   24.0918 H   0  0  0  0  0  0  0  0  0  0  0  0
   22.5701   20.3940   22.9291 H   0  0  0  0  0  0  0  0  0  0  0  0
   20.6648   20.8346   22.0423 C   0  0  0  0  0  0  0  0  0  0  0  0
   21.0288   21.8722   22.0322 H   0  0  0  0  0  0  0  0  0  0  0  0
   19.1483   20.9129   22.3574 C   0  0  0  0  0  0  0  0  0  0  0  0
   18.9575   21.8652   22.8691 H   0  0  0  0  0  0  0  0  0  0  0  0
   18.5897   20.9757   21.4143 H   0  0  0  0  0  0  0  0  0  0  0  0
   18.5321   19.7868   23.2240 C   0  0  0  0  0  0  0  0  0  0  0  0
   18.7965   19.9408   24.2789 H   0  0  0  0  0  0  0  0  0  0  0  0
   17.4392   19.8869   23.1769 H   0  0  0  0  0  0  0  0  0  0  0  0
   20.8561   20.2981   20.7360 O   0  0  0  0  0  0  0  0  0  0  0  0
   20.3188   20.8424   20.1253 H   0  0  0  0  0  0  0  0  0  0  0  0
  1  2  1  0  0  0  0
  1  3  1  0  0  0  0
  1  4  1  0  0  0  0
  4  5  1  0  0  0  0
  4  6  1  0  0  0  0
  4  7  1  0  0  0  0
  7  8  1  0  0  0  0
  7  9  1  0  0  0  0
  7 10  1  0  0  0  0
 10 11  1  0  0  0  0
 10 12  1  0  0  0  0
 10 13  1  0  0  0  0
 13 14  1  0  0  0  0
 13 15  1  0  0  0  0
 15 16  1  0  0  0  0
 15 17  1  0  0  0  0
  1 18  1  0  0  0  0
 15 18  1  0  0  0  0
 18 19  1  0  0  0  0
 18 20  1  0  0  0  0
 13 21  1  0  0  0  0
 21 22  1  0  0  0  0
M  END
> <VConfSearch Rank>
238

> <Conf_Id>
104

> <Delta U+W>
-1.172

> <U+W>
5.252

> <U>
7.482

> <W>
-2.230

> <W(PB)>
-4.220

> <W(SA)>
1.990

> <Valence>
12.309

> <Coulomb>
-7.084

> <VdW>
2.258

> <VdW6>
-9.770

> <VdW12>
12.028

> <Bond>
0.284

> <Angle>
3.491

> <Pdih>
8.535

> <Idih>
0.000

> <Tether>
0.000

$$$$
VeraChem MOL file


 22 22  0  0  0  0  0  0  0  0999 V2000     
   20.1884   21.2226   22.8005 C   0  0  0  0  0  0  0  0  0  0  0  0
   21.1661   21.2521   22.3009 H   0  0  0  0  0  0  0  0  0  0  0  0
   19.9570   22.2613   23.0732 H   0  0  0  0  0  0  0  0  0  0  0  0
   20.2594   20.3960   24.1048 C   0  0  0  0  0  0  0  0  0  0  0  0
   20.7037   21.0209   24.8918 H   0  0  0  0  0  0  0  0  0  0  0  0
   19.2413   20.1803   24.4545 H   0  0  0  0  0  0  0  0  0  0  0  0
   21.0803   19.0840   24.0244 C   0  0  0  0  0  0  0  0  0  0  0  0
   20.7079   18.3931   24.7934 H   0  0  0  0  0  0  0  0  0  0  0  0
   22.1178   19.3053   24.3099 H   0  0  0  0  0  0  0  0  0  0  0  0
   21.1180   18.3509   22.6561 C   0  0  0  0  0  0  0  0  0  0  0  0
   21.8372   18.8558   21.9982 H   0  0  0  0  0  0  0  0  0  0  0  0
   21.5333   17.3481   22.8203 H   0  0  0  0  0  0  0  0  0  0  0  0
   19.7774   18.1981   21.9015 C   0  0  0  0  0  0  0  0  0  0  0  0
   19.8896   17.3569   21.2025 H   0  0  0  0  0  0  0  0  0  0  0  0
   19.4214   19.4396   21.0529 C   0  0  0  0  0  0  0  0  0  0  0  0
   20.2509   19.6438   20.3634 H   0  0  0  0  0  0  0  0  0  0  0  0
   18.5641   19.1846   20.4163 H   0  0  0  0  0  0  0  0  0  0  0  0
   19.0851   20.7358   21.8310 C   0  0  0  0  0  0  0  0  0  0  0  0
   18.8970   21.5301   21.0959 H   0  0  0  0  0  0  0  0  0  0  0  0
   18.1399   20.6085   22.3759 H   0  0  0  0  0  0  0  0  0  0  0  0
   18.7252   17.9073   22.8084 O   0  0  0  0  0  0  0  0  0  0  0  0
   18.7428   18.6526   23.4412 H   0  0  0  0  0  0  0  0  0  0  0  0
  1  2  1  0  0  0  0
  1  3  1  0  0  0  0
  1  4  1  0  0  0  0
  4  5  1  0  0  0  0
  4  6  1  0  0  0  0
  4  7  1  0  0  0  0
  7  8  1  0  0  0  0
  7  9  1  0  0  0  0
  7 10  1  0  0  0  0
 10 11  1  0  0  0  0
 10 12  1  0  0  0  0
 10 13  1  0  0  0  0
 13 14  1  0  0  0  0
 13 15  1  0  0  0  0
 15 16  1  0  0  0  0
 15 17  1  0  0  0  0
  1 18  1  0  0  0  0
 15 18  1  0  0  0  0
 18 19  1  0  0  0  0
 18 20  1  0  0  0  0
 13 21  1  0  0  0  0
 21 22  1  0  0  0  0
M  END
> <VConfSearch Rank>
239

> <Conf_Id>
99

> <Delta U+W>
-3.852

> <U+W>
2.572

> <U>
3.922

> <W>
-1.350

> <W(PB)>
-3.345

> <W(SA)>
1.995

> <Valence>
12.571

> <Coulomb>
-10.581

> <VdW>
1.932

> <VdW6>
-10.483

> <VdW12>
12.415

> <Bond>
0.268

> <Angle>
3.728

> <Pdih>
8.575

> <Idih>
0.000

> <Tether>
0.000

$$$$
VeraChem MOL file


 22 22  0  0  0  0  0  0  0  0999 V2000     
   18.5902   20.0202   23.3037 C   0  0  0  0  0  0  0  0  0  0  0  0
   17.6062   19.7672   23.7220 H   0  0  0  0  0  0  0  0  0  0  0  0
   18.6274   21.1177   23.3116 H   0  0  0  0  0  0  0  0  0  0  0  0
   18.6366   19.4924   21.8397 C   0  0  0  0  0  0  0  0  0  0  0  0
   17.6726   19.0111   21.6244 H   0  0  0  0  0  0  0  0  0  0  0  0
   18.6965   20.3334   21.1360 H   0  0  0  0  0  0  0  0  0  0  0  0
   19.7567   18.4691   21.5220 C   0  0  0  0  0  0  0  0  0  0  0  0
   19.5603   18.0369   20.5314 H   0  0  0  0  0  0  0  0  0  0  0  0
   19.6881   17.6189   22.2120 H   0  0  0  0  0  0  0  0  0  0  0  0
   21.2074   19.0261   21.5185 C   0  0  0  0  0  0  0  0  0  0  0  0
   21.8972   18.1873   21.6776 H   0  0  0  0  0  0  0  0  0  0  0  0
   21.4328   19.3999   20.5108 H   0  0  0  0  0  0  0  0  0  0  0  0
   21.5624   20.1499   22.5231 C   0  0  0  0  0  0  0  0  0  0  0  0
   22.6579   20.2428   22.5243 H   0  0  0  0  0  0  0  0  0  0  0  0
   21.1290   19.9181   23.9917 C   0  0  0  0  0  0  0  0  0  0  0  0
   21.8097   19.1850   24.4431 H   0  0  0  0  0  0  0  0  0  0  0  0
   21.3049   20.8533   24.5399 H   0  0  0  0  0  0  0  0  0  0  0  0
   19.6699   19.4574   24.2629 C   0  0  0  0  0  0  0  0  0  0  0  0
   19.6232   18.3613   24.2709 H   0  0  0  0  0  0  0  0  0  0  0  0
   19.4097   19.7522   25.2886 H   0  0  0  0  0  0  0  0  0  0  0  0
   21.0379   21.3847   22.0612 O   0  0  0  0  0  0  0  0  0  0  0  0
   20.0690   21.2513   22.0787 H   0  0  0  0  0  0  0  0  0  0  0  0
  1  2  1  0  0  0  0
  1  3  1  0  0  0  0
  1  4  1  0  0  0  0
  4  5  1  0  0  0  0
  4  6  1  0  0  0  0
  4  7  1  0  0  0  0
  7  8  1  0  0  0  0
  7  9  1  0  0  0  0
  7 10  1  0  0  0  0
 10 11  1  0  0  0  0
 10 12  1  0  0  0  0
 10 13  1  0  0  0  0
 13 14  1  0  0  0  0
 13 15  1  0  0  0  0
 15 16  1  0  0  0  0
 15 17  1  0  0  0  0
  1 18  1  0  0  0  0
 15 18  1  0  0  0  0
 18 19  1  0  0  0  0
 18 20  1  0  0  0  0
 13 21  1  0  0  0  0
 21 22  1  0  0  0  0
M  END
> <VConfSearch Rank>
240

> <Conf_Id>
98

> <Delta U+W>
0.930

> <U+W>
7.353

> <U>
8.455

> <W>
-1.102

> <W(PB)>
-3.101

> <W(SA)>
2.000

> <Valence>
15.601

> <Coulomb>
-10.573

> <VdW>
3.427

> <VdW6>
-11.360

> <VdW12>
14.787

> <Bond>
0.471

> <Angle>
5.445

> <Pdih>
9.685

> <Idih>
0.000

> <Tether>
0.000

$$$$
VeraChem MOL file


 22 22  0  0  0  0  0  0  0  0999 V2000     
   20.7539   18.6170   23.9075 C   0  0  0  0  0  0  0  0  0  0  0  0
   21.3079   19.5260   24.1753 H   0  0  0  0  0  0  0  0  0  0  0  0
   21.0503   17.8711   24.6575 H   0  0  0  0  0  0  0  0  0  0  0  0
   21.2069   18.1197   22.5112 C   0  0  0  0  0  0  0  0  0  0  0  0
   22.2865   17.9236   22.5643 H   0  0  0  0  0  0  0  0  0  0  0  0
   20.7386   17.1494   22.2968 H   0  0  0  0  0  0  0  0  0  0  0  0
   20.9487   19.0852   21.3214 C   0  0  0  0  0  0  0  0  0  0  0  0
   20.0825   18.7433   20.7403 H   0  0  0  0  0  0  0  0  0  0  0  0
   21.7994   19.0121   20.6303 H   0  0  0  0  0  0  0  0  0  0  0  0
   20.7535   20.5738   21.7136 C   0  0  0  0  0  0  0  0  0  0  0  0
   21.5906   20.8918   22.3474 H   0  0  0  0  0  0  0  0  0  0  0  0
   20.8406   21.1842   20.8047 H   0  0  0  0  0  0  0  0  0  0  0  0
   19.4129   20.9192   22.4260 C   0  0  0  0  0  0  0  0  0  0  0  0
   19.6436   21.5581   23.2907 H   0  0  0  0  0  0  0  0  0  0  0  0
   18.5812   19.7115   22.9260 C   0  0  0  0  0  0  0  0  0  0  0  0
   17.6134   20.0749   23.2952 H   0  0  0  0  0  0  0  0  0  0  0  0
   18.3364   19.0568   22.0810 H   0  0  0  0  0  0  0  0  0  0  0  0
   19.2359   18.8756   24.0540 C   0  0  0  0  0  0  0  0  0  0  0  0
   19.0666   19.3807   25.0147 H   0  0  0  0  0  0  0  0  0  0  0  0
   18.7114   17.9129   24.1233 H   0  0  0  0  0  0  0  0  0  0  0  0
   18.5970   21.6529   21.5199 O   0  0  0  0  0  0  0  0  0  0  0  0
   17.7873   21.9062   22.0101 H   0  0  0  0  0  0  0  0  0  0  0  0
  1  2  1  0  0  0  0
  1  3  1  0  0  0  0
  1  4  1  0  0  0  0
  4  5  1  0  0  0  0
  4  6  1  0  0  0  0
  4  7  1  0  0  0  0
  7  8  1  0  0  0  0
  7  9  1  0  0  0  0
  7 10  1  0  0  0  0
 10 11  1  0  0  0  0
 10 12  1  0  0  0  0
 10 13  1  0  0  0  0
 13 14  1  0  0  0  0
 13 15  1  0  0  0  0
 15 16  1  0  0  0  0
 15 17  1  0  0  0  0
  1 18  1  0  0  0  0
 15 18  1  0  0  0  0
 18 19  1  0  0  0  0
 18 20  1  0  0  0  0
 13 21  1  0  0  0  0
 21 22  1  0  0  0  0
M  END
> <VConfSearch Rank>
241

> <Conf_Id>
141

> <Delta U+W>
0.000

> <U+W>
6.423

> <U>
8.781

> <W>
-2.358

> <W(PB)>
-4.373

> <W(SA)>
2.015

> <Valence>
13.328

> <Coulomb>
-8.387

> <VdW>
3.840

> <VdW6>
-9.744

> <VdW12>
13.584

> <Bond>
0.436

> <Angle>
3.478

> <Pdih>
9.415

> <Idih>
0.000

> <Tether>
0.000

$$$$
VeraChem MOL file


 22 22  0  0  0  0  0  0  0  0999 V2000     
   19.2973   18.0032   22.7134 C   0  0  0  0  0  0  0  0  0  0  0  0
   18.4330   18.4165   23.2508 H   0  0  0  0  0  0  0  0  0  0  0  0
   19.0790   16.9374   22.5613 H   0  0  0  0  0  0  0  0  0  0  0  0
   20.5816   18.1018   23.5716 C   0  0  0  0  0  0  0  0  0  0  0  0
   20.4874   17.4135   24.4227 H   0  0  0  0  0  0  0  0  0  0  0  0
   21.4384   17.7388   22.9878 H   0  0  0  0  0  0  0  0  0  0  0  0
   20.8991   19.5105   24.1238 C   0  0  0  0  0  0  0  0  0  0  0  0
   21.8607   19.4622   24.6528 H   0  0  0  0  0  0  0  0  0  0  0  0
   20.1528   19.7816   24.8830 H   0  0  0  0  0  0  0  0  0  0  0  0
   20.9783   20.6290   23.0561 C   0  0  0  0  0  0  0  0  0  0  0  0
   21.4296   21.5100   23.5311 H   0  0  0  0  0  0  0  0  0  0  0  0
   21.6558   20.3401   22.2421 H   0  0  0  0  0  0  0  0  0  0  0  0
   19.5920   21.0167   22.4944 C   0  0  0  0  0  0  0  0  0  0  0  0
   18.8496   20.8952   23.2962 H   0  0  0  0  0  0  0  0  0  0  0  0
   19.1345   20.1785   21.2789 C   0  0  0  0  0  0  0  0  0  0  0  0
   18.0495   20.3094   21.1758 H   0  0  0  0  0  0  0  0  0  0  0  0
   19.5759   20.5949   20.3635 H   0  0  0  0  0  0  0  0  0  0  0  0
   19.4507   18.6626   21.3228 C   0  0  0  0  0  0  0  0  0  0  0  0
   18.7834   18.1560   20.6122 H   0  0  0  0  0  0  0  0  0  0  0  0
   20.4678   18.4883   20.9462 H   0  0  0  0  0  0  0  0  0  0  0  0
   19.6226   22.3833   22.1011 O   0  0  0  0  0  0  0  0  0  0  0  0
   19.8401   22.9030   22.9030 H   0  0  0  0  0  0  0  0  0  0  0  0
  1  2  1  0  0  0  0
  1  3  1  0  0  0  0
  1  4  1  0  0  0  0
  4  5  1  0  0  0  0
  4  6  1  0  0  0  0
  4  7  1  0  0  0  0
  7  8  1  0  0  0  0
  7  9  1  0  0  0  0
  7 10  1  0  0  0  0
 10 11  1  0  0  0  0
 10 12  1  0  0  0  0
 10 13  1  0  0  0  0
 13 14  1  0  0  0  0
 13 15  1  0  0  0  0
 15 16  1  0  0  0  0
 15 17  1  0  0  0  0
  1 18  1  0  0  0  0
 15 18  1  0  0  0  0
 18 19  1  0  0  0  0
 18 20  1  0  0  0  0
 13 21  1  0  0  0  0
 21 22  1  0  0  0  0
M  END
> <VConfSearch Rank>
242

> <Conf_Id>
144

> <Delta U+W>
-3.291

> <U+W>
3.132

> <U>
5.411

> <W>
-2.279

> <W(PB)>
-4.300

> <W(SA)>
2.021

> <Valence>
11.909

> <Coulomb>
-8.733

> <VdW>
2.236

> <VdW6>
-8.936

> <VdW12>
11.172

> <Bond>
0.223

> <Angle>
2.457

> <Pdih>
9.228

> <Idih>
0.000

> <Tether>
0.000

$$$$
VeraChem MOL file


 22 22  0  0  0  0  0  0  0  0999 V2000     
   20.3751   20.1117   21.0717 C   0  0  0  0  0  0  0  0  0  0  0  0
   20.3578   20.4926   20.0414 H   0  0  0  0  0  0  0  0  0  0  0  0
   21.4346   19.9740   21.3271 H   0  0  0  0  0  0  0  0  0  0  0  0
   19.6226   18.7606   21.0948 C   0  0  0  0  0  0  0  0  0  0  0  0
   18.5419   18.9452   21.1635 H   0  0  0  0  0  0  0  0  0  0  0  0
   19.7724   18.2539   20.1316 H   0  0  0  0  0  0  0  0  0  0  0  0
   20.0556   17.7873   22.2178 C   0  0  0  0  0  0  0  0  0  0  0  0
   20.9459   17.2345   21.8880 H   0  0  0  0  0  0  0  0  0  0  0  0
   19.2656   17.0338   22.3411 H   0  0  0  0  0  0  0  0  0  0  0  0
   20.3656   18.4227   23.5956 C   0  0  0  0  0  0  0  0  0  0  0  0
   20.3273   17.6249   24.3496 H   0  0  0  0  0  0  0  0  0  0  0  0
   21.4011   18.7867   23.5998 H   0  0  0  0  0  0  0  0  0  0  0  0
   19.4188   19.5709   24.0113 C   0  0  0  0  0  0  0  0  0  0  0  0
   18.4064   19.3683   23.6338 H   0  0  0  0  0  0  0  0  0  0  0  0
   19.8973   20.9484   23.4989 C   0  0  0  0  0  0  0  0  0  0  0  0
   19.3411   21.7332   24.0287 H   0  0  0  0  0  0  0  0  0  0  0  0
   20.9525   21.0920   23.7654 H   0  0  0  0  0  0  0  0  0  0  0  0
   19.7217   21.1813   21.9795 C   0  0  0  0  0  0  0  0  0  0  0  0
   18.6513   21.2552   21.7439 H   0  0  0  0  0  0  0  0  0  0  0  0
   20.1511   22.1614   21.7308 H   0  0  0  0  0  0  0  0  0  0  0  0
   19.3773   19.6238   25.4310 O   0  0  0  0  0  0  0  0  0  0  0  0
   20.2931   19.8034   25.7280 H   0  0  0  0  0  0  0  0  0  0  0  0
  1  2  1  0  0  0  0
  1  3  1  0  0  0  0
  1  4  1  0  0  0  0
  4  5  1  0  0  0  0
  4  6  1  0  0  0  0
  4  7  1  0  0  0  0
  7  8  1  0  0  0  0
  7  9  1  0  0  0  0
  7 10  1  0  0  0  0
 10 11  1  0  0  0  0
 10 12  1  0  0  0  0
 10 13  1  0  0  0  0
 13 14  1  0  0  0  0
 13 15  1  0  0  0  0
 15 16  1  0  0  0  0
 15 17  1  0  0  0  0
  1 18  1  0  0  0  0
 15 18  1  0  0  0  0
 18 19  1  0  0  0  0
 18 20  1  0  0  0  0
 13 21  1  0  0  0  0
 21 22  1  0  0  0  0
M  END
> <VConfSearch Rank>
243

> <Conf_Id>
76

> <Delta U+W>
-3.175

> <U+W>
3.248

> <U>
5.336

> <W>
-2.088

> <W(PB)>
-4.098

> <W(SA)>
2.010

> <Valence>
12.390

> <Coulomb>
-9.270

> <VdW>
2.216

> <VdW6>
-8.967

> <VdW12>
11.183

> <Bond>
0.218

> <Angle>
2.426

> <Pdih>
9.745

> <Idih>
0.000

> <Tether>
0.000

$$$$
VeraChem MOL file


 22 22  0  0  0  0  0  0  0  0999 V2000     
   19.0821   20.6424   23.8569 C   0  0  0  0  0  0  0  0  0  0  0  0
   18.5450   21.5684   23.6102 H   0  0  0  0  0  0  0  0  0  0  0  0
   18.8544   20.4379   24.9119 H   0  0  0  0  0  0  0  0  0  0  0  0
   20.5995   20.9104   23.7142 C   0  0  0  0  0  0  0  0  0  0  0  0
   20.7740   21.5888   22.8682 H   0  0  0  0  0  0  0  0  0  0  0  0
   20.9322   21.4604   24.6050 H   0  0  0  0  0  0  0  0  0  0  0  0
   21.4745   19.6460   23.5487 C   0  0  0  0  0  0  0  0  0  0  0  0
   21.0931   18.8201   24.1644 H   0  0  0  0  0  0  0  0  0  0  0  0
   22.4783   19.8734   23.9319 H   0  0  0  0  0  0  0  0  0  0  0  0
   21.6222   19.2080   22.0693 C   0  0  0  0  0  0  0  0  0  0  0  0
   21.9347   20.0707   21.4672 H   0  0  0  0  0  0  0  0  0  0  0  0
   22.4457   18.4854   21.9986 H   0  0  0  0  0  0  0  0  0  0  0  0
   20.3733   18.5723   21.4173 C   0  0  0  0  0  0  0  0  0  0  0  0
   20.5840   18.4914   20.3411 H   0  0  0  0  0  0  0  0  0  0  0  0
   19.0647   19.3884   21.5654 C   0  0  0  0  0  0  0  0  0  0  0  0
   19.2051   20.3950   21.1507 H   0  0  0  0  0  0  0  0  0  0  0  0
   18.3040   18.9117   20.9338 H   0  0  0  0  0  0  0  0  0  0  0  0
   18.5067   19.4828   23.0093 C   0  0  0  0  0  0  0  0  0  0  0  0
   17.4169   19.6102   22.9596 H   0  0  0  0  0  0  0  0  0  0  0  0
   18.6644   18.5330   23.5370 H   0  0  0  0  0  0  0  0  0  0  0  0
   20.1915   17.2576   21.9336 O   0  0  0  0  0  0  0  0  0  0  0  0
   19.3659   16.9135   21.5359 H   0  0  0  0  0  0  0  0  0  0  0  0
  1  2  1  0  0  0  0
  1  3  1  0  0  0  0
  1  4  1  0  0  0  0
  4  5  1  0  0  0  0
  4  6  1  0  0  0  0
  4  7  1  0  0  0  0
  7  8  1  0  0  0  0
  7  9  1  0  0  0  0
  7 10  1  0  0  0  0
 10 11  1  0  0  0  0
 10 12  1  0  0  0  0
 10 13  1  0  0  0  0
 13 14  1  0  0  0  0
 13 15  1  0  0  0  0
 15 16  1  0  0  0  0
 15 17  1  0  0  0  0
  1 18  1  0  0  0  0
 15 18  1  0  0  0  0
 18 19  1  0  0  0  0
 18 20  1  0  0  0  0
 13 21  1  0  0  0  0
 21 22  1  0  0  0  0
M  END
> <VConfSearch Rank>
244

> <Conf_Id>
95

> <Delta U+W>
-2.289

> <U+W>
4.134

> <U>
6.373

> <W>
-2.240

> <W(PB)>
-4.254

> <W(SA)>
2.015

> <Valence>
12.093

> <Coulomb>
-8.058

> <VdW>
2.339

> <VdW6>
-9.683

> <VdW12>
12.022

> <Bond>
0.268

> <Angle>
3.005

> <Pdih>
8.820

> <Idih>
0.000

> <Tether>
0.000

$$$$
VeraChem MOL file


 22 22  0  0  0  0  0  0  0  0999 V2000     
   21.4654   18.3499   22.7183 C   0  0  0  0  0  0  0  0  0  0  0  0
   22.5294   18.5239   22.9288 H   0  0  0  0  0  0  0  0  0  0  0  0
   21.3679   17.2687   22.5505 H   0  0  0  0  0  0  0  0  0  0  0  0
   21.1026   19.0944   21.4113 C   0  0  0  0  0  0  0  0  0  0  0  0
   21.6605   20.0393   21.3614 H   0  0  0  0  0  0  0  0  0  0  0  0
   21.4667   18.4940   20.5665 H   0  0  0  0  0  0  0  0  0  0  0  0
   19.5948   19.3759   21.2143 C   0  0  0  0  0  0  0  0  0  0  0  0
   18.9870   18.5379   21.5819 H   0  0  0  0  0  0  0  0  0  0  0  0
   19.3995   19.4441   20.1356 H   0  0  0  0  0  0  0  0  0  0  0  0
   19.1468   20.7112   21.8607 C   0  0  0  0  0  0  0  0  0  0  0  0
   19.8265   21.5111   21.5398 H   0  0  0  0  0  0  0  0  0  0  0  0
   18.1639   20.9847   21.4557 H   0  0  0  0  0  0  0  0  0  0  0  0
   19.0591   20.7262   23.4040 C   0  0  0  0  0  0  0  0  0  0  0  0
   18.9041   21.7729   23.7031 H   0  0  0  0  0  0  0  0  0  0  0  0
   20.3277   20.2266   24.1398 C   0  0  0  0  0  0  0  0  0  0  0  0
   21.1965   20.8248   23.8368 H   0  0  0  0  0  0  0  0  0  0  0  0
   20.1829   20.4285   25.2090 H   0  0  0  0  0  0  0  0  0  0  0  0
   20.6356   18.7159   23.9721 C   0  0  0  0  0  0  0  0  0  0  0  0
   21.1881   18.3685   24.8554 H   0  0  0  0  0  0  0  0  0  0  0  0
   19.6995   18.1420   23.9717 H   0  0  0  0  0  0  0  0  0  0  0  0
   17.9237   19.9732   23.8198 O   0  0  0  0  0  0  0  0  0  0  0  0
   17.1583   20.3162   23.3151 H   0  0  0  0  0  0  0  0  0  0  0  0
  1  2  1  0  0  0  0
  1  3  1  0  0  0  0
  1  4  1  0  0  0  0
  4  5  1  0  0  0  0
  4  6  1  0  0  0  0
  4  7  1  0  0  0  0
  7  8  1  0  0  0  0
  7  9  1  0  0  0  0
  7 10  1  0  0  0  0
 10 11  1  0  0  0  0
 10 12  1  0  0  0  0
 10 13  1  0  0  0  0
 13 14  1  0  0  0  0
 13 15  1  0  0  0  0
 15 16  1  0  0  0  0
 15 17  1  0  0  0  0
  1 18  1  0  0  0  0
 15 18  1  0  0  0  0
 18 19  1  0  0  0  0
 18 20  1  0  0  0  0
 13 21  1  0  0  0  0
 21 22  1  0  0  0  0
M  END
> <VConfSearch Rank>
245

> <Conf_Id>
41

> <Delta U+W>
-2.114

> <U+W>
4.310

> <U>
6.598

> <W>
-2.289

> <W(PB)>
-4.294

> <W(SA)>
2.005

> <Valence>
12.082

> <Coulomb>
-7.801

> <VdW>
2.317

> <VdW6>
-9.658

> <VdW12>
11.975

> <Bond>
0.267

> <Angle>
3.051

> <Pdih>
8.764

> <Idih>
0.000

> <Tether>
0.000

$$$$
VeraChem MOL file


 22 22  0  0  0  0  0  0  0  0999 V2000     
   18.4398   19.6464   22.9514 C   0  0  0  0  0  0  0  0  0  0  0  0
   17.3536   19.4862   22.9856 H   0  0  0  0  0  0  0  0  0  0  0  0
   18.6641   20.4009   23.7179 H   0  0  0  0  0  0  0  0  0  0  0  0
   18.7968   20.1744   21.5439 C   0  0  0  0  0  0  0  0  0  0  0  0
   18.6241   19.3846   20.8003 H   0  0  0  0  0  0  0  0  0  0  0  0
   18.1029   20.9864   21.2874 H   0  0  0  0  0  0  0  0  0  0  0  0
   20.2391   20.7084   21.4029 C   0  0  0  0  0  0  0  0  0  0  0  0
   20.3467   21.6298   21.9904 H   0  0  0  0  0  0  0  0  0  0  0  0
   20.3883   21.0077   20.3568 H   0  0  0  0  0  0  0  0  0  0  0  0
   21.3563   19.7004   21.7864 C   0  0  0  0  0  0  0  0  0  0  0  0
   21.2049   18.7510   21.2574 H   0  0  0  0  0  0  0  0  0  0  0  0
   22.3072   20.1001   21.4114 H   0  0  0  0  0  0  0  0  0  0  0  0
   21.5393   19.4345   23.3029 C   0  0  0  0  0  0  0  0  0  0  0  0
   22.5325   18.9786   23.4255 H   0  0  0  0  0  0  0  0  0  0  0  0
   20.5298   18.4467   23.9435 C   0  0  0  0  0  0  0  0  0  0  0  0
   20.9910   17.4506   23.9544 H   0  0  0  0  0  0  0  0  0  0  0  0
   20.3914   18.7116   25.0000 H   0  0  0  0  0  0  0  0  0  0  0  0
   19.1366   18.3078   23.2812 C   0  0  0  0  0  0  0  0  0  0  0  0
   19.2149   17.6957   22.3725 H   0  0  0  0  0  0  0  0  0  0  0  0
   18.4947   17.7372   23.9660 H   0  0  0  0  0  0  0  0  0  0  0  0
   21.5358   20.6613   24.0280 O   0  0  0  0  0  0  0  0  0  0  0  0
   21.6942   20.4352   24.9670 H   0  0  0  0  0  0  0  0  0  0  0  0
  1  2  1  0  0  0  0
  1  3  1  0  0  0  0
  1  4  1  0  0  0  0
  4  5  1  0  0  0  0
  4  6  1  0  0  0  0
  4  7  1  0  0  0  0
  7  8  1  0  0  0  0
  7  9  1  0  0  0  0
  7 10  1  0  0  0  0
 10 11  1  0  0  0  0
 10 12  1  0  0  0  0
 10 13  1  0  0  0  0
 13 14  1  0  0  0  0
 13 15  1  0  0  0  0
 15 16  1  0  0  0  0
 15 17  1  0  0  0  0
  1 18  1  0  0  0  0
 15 18  1  0  0  0  0
 18 19  1  0  0  0  0
 18 20  1  0  0  0  0
 13 21  1  0  0  0  0
 21 22  1  0  0  0  0
M  END
> <VConfSearch Rank>
246

> <Conf_Id>
104

> <Delta U+W>
-1.172

> <U+W>
5.252

> <U>
7.482

> <W>
-2.230

> <W(PB)>
-4.220

> <W(SA)>
1.990

> <Valence>
12.309

> <Coulomb>
-7.084

> <VdW>
2.258

> <VdW6>
-9.770

> <VdW12>
12.028

> <Bond>
0.284

> <Angle>
3.491

> <Pdih>
8.535

> <Idih>
0.000

> <Tether>
0.000

$$$$
VeraChem MOL file


 22 22  0  0  0  0  0  0  0  0999 V2000     
   21.3846   18.6225   22.8422 C   0  0  0  0  0  0  0  0  0  0  0  0
   20.8932   17.9746   23.5806 H   0  0  0  0  0  0  0  0  0  0  0  0
   22.4049   18.2314   22.7286 H   0  0  0  0  0  0  0  0  0  0  0  0
   21.4899   20.0737   23.3642 C   0  0  0  0  0  0  0  0  0  0  0  0
   22.3367   20.1345   24.0617 H   0  0  0  0  0  0  0  0  0  0  0  0
   21.7577   20.7402   22.5339 H   0  0  0  0  0  0  0  0  0  0  0  0
   20.2362   20.6169   24.0955 C   0  0  0  0  0  0  0  0  0  0  0  0
   20.2338   21.7127   24.0143 H   0  0  0  0  0  0  0  0  0  0  0  0
   20.3407   20.4048   25.1683 H   0  0  0  0  0  0  0  0  0  0  0  0
   18.8554   20.0695   23.6429 C   0  0  0  0  0  0  0  0  0  0  0  0
   18.6997   19.0776   24.0865 H   0  0  0  0  0  0  0  0  0  0  0  0
   18.0775   20.7068   24.0831 H   0  0  0  0  0  0  0  0  0  0  0  0
   18.5980   19.9787   22.1212 C   0  0  0  0  0  0  0  0  0  0  0  0
   17.5084   19.9672   21.9740 H   0  0  0  0  0  0  0  0  0  0  0  0
   19.1470   18.6763   21.4963 C   0  0  0  0  0  0  0  0  0  0  0  0
   18.7138   17.8204   22.0300 H   0  0  0  0  0  0  0  0  0  0  0  0
   18.7696   18.6048   20.4678 H   0  0  0  0  0  0  0  0  0  0  0  0
   20.6876   18.5205   21.4646 C   0  0  0  0  0  0  0  0  0  0  0  0
   20.9172   17.5363   21.0340 H   0  0  0  0  0  0  0  0  0  0  0  0
   21.1220   19.2540   20.7720 H   0  0  0  0  0  0  0  0  0  0  0  0
   19.1415   21.1080   21.4553 O   0  0  0  0  0  0  0  0  0  0  0  0
   20.0883   21.0963   21.6999 H   0  0  0  0  0  0  0  0  0  0  0  0
  1  2  1  0  0  0  0
  1  3  1  0  0  0  0
  1  4  1  0  0  0  0
  4  5  1  0  0  0  0
  4  6  1  0  0  0  0
  4  7  1  0  0  0  0
  7  8  1  0  0  0  0
  7  9  1  0  0  0  0
  7 10  1  0  0  0  0
 10 11  1  0  0  0  0
 10 12  1  0  0  0  0
 10 13  1  0  0  0  0
 13 14  1  0  0  0  0
 13 15  1  0  0  0  0
 15 16  1  0  0  0  0
 15 17  1  0  0  0  0
  1 18  1  0  0  0  0
 15 18  1  0  0  0  0
 18 19  1  0  0  0  0
 18 20  1  0  0  0  0
 13 21  1  0  0  0  0
 21 22  1  0  0  0  0
M  END
> <VConfSearch Rank>
247

> <Conf_Id>
99

> <Delta U+W>
-3.852

> <U+W>
2.572

> <U>
3.922

> <W>
-1.350

> <W(PB)>
-3.345

> <W(SA)>
1.995

> <Valence>
12.571

> <Coulomb>
-10.581

> <VdW>
1.932

> <VdW6>
-10.483

> <VdW12>
12.415

> <Bond>
0.268

> <Angle>
3.728

> <Pdih>
8.575

> <Idih>
0.000

> <Tether>
0.000

$$$$
VeraChem MOL file


 22 22  0  0  0  0  0  0  0  0999 V2000     
   20.8453   18.7644   21.4522 C   0  0  0  0  0  0  0  0  0  0  0  0
   21.5726   18.7062   20.6307 H   0  0  0  0  0  0  0  0  0  0  0  0
   20.4047   17.7602   21.5119 H   0  0  0  0  0  0  0  0  0  0  0  0
   19.7576   19.8047   21.0540 C   0  0  0  0  0  0  0  0  0  0  0  0
   20.0140   20.1966   20.0601 H   0  0  0  0  0  0  0  0  0  0  0  0
   18.7882   19.3062   20.9203 H   0  0  0  0  0  0  0  0  0  0  0  0
   19.5921   21.0136   22.0100 C   0  0  0  0  0  0  0  0  0  0  0  0
   18.9458   21.7555   21.5215 H   0  0  0  0  0  0  0  0  0  0  0  0
   20.5553   21.5244   22.1313 H   0  0  0  0  0  0  0  0  0  0  0  0
   18.9851   20.7003   23.4058 C   0  0  0  0  0  0  0  0  0  0  0  0
   19.2779   21.5027   24.0951 H   0  0  0  0  0  0  0  0  0  0  0  0
   17.8915   20.7667   23.3312 H   0  0  0  0  0  0  0  0  0  0  0  0
   19.3260   19.3404   24.0637 C   0  0  0  0  0  0  0  0  0  0  0  0
   19.0017   19.4028   25.1124 H   0  0  0  0  0  0  0  0  0  0  0  0
   20.8225   18.9424   24.0785 C   0  0  0  0  0  0  0  0  0  0  0  0
   21.3324   19.5369   24.8474 H   0  0  0  0  0  0  0  0  0  0  0  0
   20.8848   17.9028   24.4269 H   0  0  0  0  0  0  0  0  0  0  0  0
   21.6284   19.0658   22.7556 C   0  0  0  0  0  0  0  0  0  0  0  0
   22.0849   20.0613   22.6915 H   0  0  0  0  0  0  0  0  0  0  0  0
   22.4803   18.3749   22.8155 H   0  0  0  0  0  0  0  0  0  0  0  0
   18.5656   18.3111   23.4509 O   0  0  0  0  0  0  0  0  0  0  0  0
   18.8891   18.2959   22.5278 H   0  0  0  0  0  0  0  0  0  0  0  0
  1  2  1  0  0  0  0
  1  3  1  0  0  0  0
  1  4  1  0  0  0  0
  4  5  1  0  0  0  0
  4  6  1  0  0  0  0
  4  7  1  0  0  0  0
  7  8  1  0  0  0  0
  7  9  1  0  0  0  0
  7 10  1  0  0  0  0
 10 11  1  0  0  0  0
 10 12  1  0  0  0  0
 10 13  1  0  0  0  0
 13 14  1  0  0  0  0
 13 15  1  0  0  0  0
 15 16  1  0  0  0  0
 15 17  1  0  0  0  0
  1 18  1  0  0  0  0
 15 18  1  0  0  0  0
 18 19  1  0  0  0  0
 18 20  1  0  0  0  0
 13 21  1  0  0  0  0
 21 22  1  0  0  0  0
M  END
> <VConfSearch Rank>
248

> <Conf_Id>
98

> <Delta U+W>
0.930

> <U+W>
7.353

> <U>
8.455

> <W>
-1.102

> <W(PB)>
-3.101

> <W(SA)>
2.000

> <Valence>
15.601

> <Coulomb>
-10.573

> <VdW>
3.427

> <VdW6>
-11.360

> <VdW12>
14.787

> <Bond>
0.471

> <Angle>
5.445

> <Pdih>
9.685

> <Idih>
0.000

> <Tether>
0.000

$$$$
VeraChem MOL file


 22 22  0  0  0  0  0  0  0  0999 V2000     
   19.0403   19.7112   21.2510 C   0  0  0  0  0  0  0  0  0  0  0  0
   19.8579   19.2438   20.6873 H   0  0  0  0  0  0  0  0  0  0  0  0
   18.2412   19.8711   20.5144 H   0  0  0  0  0  0  0  0  0  0  0  0
   19.4973   21.0905   21.7903 C   0  0  0  0  0  0  0  0  0  0  0  0
   19.7837   21.7051   20.9259 H   0  0  0  0  0  0  0  0  0  0  0  0
   18.6441   21.6059   22.2519 H   0  0  0  0  0  0  0  0  0  0  0  0
   20.6872   21.0771   22.7895 C   0  0  0  0  0  0  0  0  0  0  0  0
   20.3205   21.2253   23.8135 H   0  0  0  0  0  0  0  0  0  0  0  0
   21.3162   21.9541   22.5848 H   0  0  0  0  0  0  0  0  0  0  0  0
   21.5750   19.8056   22.7370 C   0  0  0  0  0  0  0  0  0  0  0  0
   21.8863   19.6265   21.7004 H   0  0  0  0  0  0  0  0  0  0  0  0
   22.5074   20.0133   23.2791 H   0  0  0  0  0  0  0  0  0  0  0  0
   20.9371   18.5065   23.3110 C   0  0  0  0  0  0  0  0  0  0  0  0
   21.1298   17.6912   22.5989 H   0  0  0  0  0  0  0  0  0  0  0  0
   19.4124   18.5627   23.5800 C   0  0  0  0  0  0  0  0  0  0  0  0
   19.1076   17.6409   24.0922 H   0  0  0  0  0  0  0  0  0  0  0  0
   19.1923   19.3693   24.2897 H   0  0  0  0  0  0  0  0  0  0  0  0
   18.5217   18.7239   22.3229 C   0  0  0  0  0  0  0  0  0  0  0  0
   18.3945   17.7410   21.8490 H   0  0  0  0  0  0  0  0  0  0  0  0
   17.5185   19.0353   22.6444 H   0  0  0  0  0  0  0  0  0  0  0  0
   21.5765   18.1974   24.5442 O   0  0  0  0  0  0  0  0  0  0  0  0
   21.1979   17.3482   24.8538 H   0  0  0  0  0  0  0  0  0  0  0  0
  1  2  1  0  0  0  0
  1  3  1  0  0  0  0
  1  4  1  0  0  0  0
  4  5  1  0  0  0  0
  4  6  1  0  0  0  0
  4  7  1  0  0  0  0
  7  8  1  0  0  0  0
  7  9  1  0  0  0  0
  7 10  1  0  0  0  0
 10 11  1  0  0  0  0
 10 12  1  0  0  0  0
 10 13  1  0  0  0  0
 13 14  1  0  0  0  0
 13 15  1  0  0  0  0
 15 16  1  0  0  0  0
 15 17  1  0  0  0  0
  1 18  1  0  0  0  0
 15 18  1  0  0  0  0
 18 19  1  0  0  0  0
 18 20  1  0  0  0  0
 13 21  1  0  0  0  0
 21 22  1  0  0  0  0
M  END
> <VConfSearch Rank>
249

> <Conf_Id>
141

> <Delta U+W>
0.000

> <U+W>
6.423

> <U>
8.781

> <W>
-2.358

> <W(PB)>
-4.373

> <W(SA)>
2.015

> <Valence>
13.328

> <Coulomb>
-8.387

> <VdW>
3.840

> <VdW6>
-9.744

> <VdW12>
13.584

> <Bond>
0.436

> <Angle>
3.478

> <Pdih>
9.415

> <Idih>
0.000

> <Tether>
0.000

$$$$
VeraChem MOL file


 22 22  0  0  0  0  0  0  0  0999 V2000     
   19.8558   19.5848   24.4027 C   0  0  0  0  0  0  0  0  0  0  0  0
   20.8340   19.0867   24.4440 H   0  0  0  0  0  0  0  0  0  0  0  0
   19.5524   19.7453   25.4463 H   0  0  0  0  0  0  0  0  0  0  0  0
   18.7966   18.6704   23.7411 C   0  0  0  0  0  0  0  0  0  0  0  0
   18.5971   17.8237   24.4120 H   0  0  0  0  0  0  0  0  0  0  0  0
   17.8463   19.2153   23.6576 H   0  0  0  0  0  0  0  0  0  0  0  0
   19.1859   18.1062   22.3553 C   0  0  0  0  0  0  0  0  0  0  0  0
   18.3321   17.5348   21.9661 H   0  0  0  0  0  0  0  0  0  0  0  0
   20.0028   17.3811   22.4729 H   0  0  0  0  0  0  0  0  0  0  0  0
   19.5882   19.1704   21.3052 C   0  0  0  0  0  0  0  0  0  0  0  0
   19.6127   18.6768   20.3248 H   0  0  0  0  0  0  0  0  0  0  0  0
   18.8218   19.9532   21.2339 H   0  0  0  0  0  0  0  0  0  0  0  0
   20.9736   19.7935   21.5880 C   0  0  0  0  0  0  0  0  0  0  0  0
   21.6080   19.0254   22.0531 H   0  0  0  0  0  0  0  0  0  0  0  0
   20.9448   21.0273   22.5187 C   0  0  0  0  0  0  0  0  0  0  0  0
   21.9630   21.1787   22.8997 H   0  0  0  0  0  0  0  0  0  0  0  0
   20.7085   21.9226   21.9280 H   0  0  0  0  0  0  0  0  0  0  0  0
   19.9680   20.9679   23.7196 C   0  0  0  0  0  0  0  0  0  0  0  0
   20.2980   21.7069   24.4625 H   0  0  0  0  0  0  0  0  0  0  0  0
   18.9708   21.2987   23.3989 H   0  0  0  0  0  0  0  0  0  0  0  0
   21.5601   20.1865   20.3531 O   0  0  0  0  0  0  0  0  0  0  0  0
   21.6387   19.3762   19.8074 H   0  0  0  0  0  0  0  0  0  0  0  0
  1  2  1  0  0  0  0
  1  3  1  0  0  0  0
  1  4  1  0  0  0  0
  4  5  1  0  0  0  0
  4  6  1  0  0  0  0
  4  7  1  0  0  0  0
  7  8  1  0  0  0  0
  7  9  1  0  0  0  0
  7 10  1  0  0  0  0
 10 11  1  0  0  0  0
 10 12  1  0  0  0  0
 10 13  1  0  0  0  0
 13 14  1  0  0  0  0
 13 15  1  0  0  0  0
 15 16  1  0  0  0  0
 15 17  1  0  0  0  0
  1 18  1  0  0  0  0
 15 18  1  0  0  0  0
 18 19  1  0  0  0  0
 18 20  1  0  0  0  0
 13 21  1  0  0  0  0
 21 22  1  0  0  0  0
M  END
> <VConfSearch Rank>
250

> <Conf_Id>
144

> <Delta U+W>
-3.291

> <U+W>
3.132

> <U>
5.411

> <W>
-2.279

> <W(PB)>
-4.300

> <W(SA)>
2.021

> <Valence>
11.909

> <Coulomb>
-8.733

> <VdW>
2.236

> <VdW6>
-8.936

> <VdW12>
11.172

> <Bond>
0.223

> <Angle>
2.457

> <Pdih>
9.228

> <Idih>
0.000

> <Tether>
0.000

$$$$
VeraChem MOL file


 22 22  0  0  0  0  0  0  0  0999 V2000     
   20.6449   18.6456   21.3562 C   0  0  0  0  0  0  0  0  0  0  0  0
   20.9115   18.2388   20.3711 H   0  0  0  0  0  0  0  0  0  0  0  0
   21.2671   18.1087   22.0852 H   0  0  0  0  0  0  0  0  0  0  0  0
   19.1437   18.3641   21.5997 C   0  0  0  0  0  0  0  0  0  0  0  0
   18.5415   19.1349   21.0999 H   0  0  0  0  0  0  0  0  0  0  0  0
   18.8753   17.4187   21.1086 H   0  0  0  0  0  0  0  0  0  0  0  0
   18.7277   18.2633   23.0872 C   0  0  0  0  0  0  0  0  0  0  0  0
   18.9307   17.2453   23.4469 H   0  0  0  0  0  0  0  0  0  0  0  0
   17.6378   18.3887   23.1470 H   0  0  0  0  0  0  0  0  0  0  0  0
   19.4040   19.2618   24.0586 C   0  0  0  0  0  0  0  0  0  0  0  0
   18.7947   19.3074   24.9714 H   0  0  0  0  0  0  0  0  0  0  0  0
   20.3766   18.8592   24.3699 H   0  0  0  0  0  0  0  0  0  0  0  0
   19.5977   20.6880   23.4963 C   0  0  0  0  0  0  0  0  0  0  0  0
   18.7589   20.9388   22.8315 H   0  0  0  0  0  0  0  0  0  0  0  0
   20.9313   20.8472   22.7313 C   0  0  0  0  0  0  0  0  0  0  0  0
   21.1258   21.9178   22.5826 H   0  0  0  0  0  0  0  0  0  0  0  0
   21.7562   20.4722   23.3510 H   0  0  0  0  0  0  0  0  0  0  0  0
   20.9815   20.1561   21.3479 C   0  0  0  0  0  0  0  0  0  0  0  0
   20.3052   20.6767   20.6562 H   0  0  0  0  0  0  0  0  0  0  0  0
   21.9910   20.2877   20.9351 H   0  0  0  0  0  0  0  0  0  0  0  0
   19.6084   21.6003   24.5862 O   0  0  0  0  0  0  0  0  0  0  0  0
   20.3645   21.3444   25.1537 H   0  0  0  0  0  0  0  0  0  0  0  0
  1  2  1  0  0  0  0
  1  3  1  0  0  0  0
  1  4  1  0  0  0  0
  4  5  1  0  0  0  0
  4  6  1  0  0  0  0
  4  7  1  0  0  0  0
  7  8  1  0  0  0  0
  7  9  1  0  0  0  0
  7 10  1  0  0  0  0
 10 11  1  0  0  0  0
 10 12  1  0  0  0  0
 10 13  1  0  0  0  0
 13 14  1  0  0  0  0
 13 15  1  0  0  0  0
 15 16  1  0  0  0  0
 15 17  1  0  0  0  0
  1 18  1  0  0  0  0
 15 18  1  0  0  0  0
 18 19  1  0  0  0  0
 18 20  1  0  0  0  0
 13 21  1  0  0  0  0
 21 22  1  0  0  0  0
M  END
> <VConfSearch Rank>
251

> <Conf_Id>
76

> <Delta U+W>
-3.175

> <U+W>
3.248

> <U>
5.336

> <W>
-2.088

> <W(PB)>
-4.098

> <W(SA)>
2.010

> <Valence>
12.390

> <Coulomb>
-9.270

> <VdW>
2.216

> <VdW6>
-8.967

> <VdW12>
11.183

> <Bond>
0.218

> <Angle>
2.426

> <Pdih>
9.745

> <Idih>
0.000

> <Tether>
0.000

$$$$
VeraChem MOL file


 22 22  0  0  0  0  0  0  0  0999 V2000     
   18.4888   20.4335   22.1838 C   0  0  0  0  0  0  0  0  0  0  0  0
   18.0803   21.3619   22.6057 H   0  0  0  0  0  0  0  0  0  0  0  0
   17.8248   20.1674   21.3500 H   0  0  0  0  0  0  0  0  0  0  0  0
   18.4015   19.3307   23.2659 C   0  0  0  0  0  0  0  0  0  0  0  0
   18.5990   19.7695   24.2533 H   0  0  0  0  0  0  0  0  0  0  0  0
   17.3629   18.9751   23.3051 H   0  0  0  0  0  0  0  0  0  0  0  0
   19.3386   18.1206   23.0439 C   0  0  0  0  0  0  0  0  0  0  0  0
   19.4147   17.8723   21.9765 H   0  0  0  0  0  0  0  0  0  0  0  0
   18.8858   17.2453   23.5288 H   0  0  0  0  0  0  0  0  0  0  0  0
   20.7441   18.3286   23.6630 C   0  0  0  0  0  0  0  0  0  0  0  0
   20.6347   18.6452   24.7082 H   0  0  0  0  0  0  0  0  0  0  0  0
   21.2571   17.3586   23.7011 H   0  0  0  0  0  0  0  0  0  0  0  0
   21.6702   19.3289   22.9344 C   0  0  0  0  0  0  0  0  0  0  0  0
   22.5364   19.4951   23.5910 H   0  0  0  0  0  0  0  0  0  0  0  0
   21.0443   20.7165   22.6455 C   0  0  0  0  0  0  0  0  0  0  0  0
   20.7013   21.1724   23.5833 H   0  0  0  0  0  0  0  0  0  0  0  0
   21.8445   21.3697   22.2744 H   0  0  0  0  0  0  0  0  0  0  0  0
   19.8951   20.7172   21.6041 C   0  0  0  0  0  0  0  0  0  0  0  0
   19.8650   21.6985   21.1116 H   0  0  0  0  0  0  0  0  0  0  0  0
   20.1113   19.9971   20.8040 H   0  0  0  0  0  0  0  0  0  0  0  0
   22.1373   18.7410   21.7244 O   0  0  0  0  0  0  0  0  0  0  0  0
   22.6746   19.4230   21.2722 H   0  0  0  0  0  0  0  0  0  0  0  0
  1  2  1  0  0  0  0
  1  3  1  0  0  0  0
  1  4  1  0  0  0  0
  4  5  1  0  0  0  0
  4  6  1  0  0  0  0
  4  7  1  0  0  0  0
  7  8  1  0  0  0  0
  7  9  1  0  0  0  0
  7 10  1  0  0  0  0
 10 11  1  0  0  0  0
 10 12  1  0  0  0  0
 10 13  1  0  0  0  0
 13 14  1  0  0  0  0
 13 15  1  0  0  0  0
 15 16  1  0  0  0  0
 15 17  1  0  0  0  0
  1 18  1  0  0  0  0
 15 18  1  0  0  0  0
 18 19  1  0  0  0  0
 18 20  1  0  0  0  0
 13 21  1  0  0  0  0
 21 22  1  0  0  0  0
M  END
> <VConfSearch Rank>
252

> <Conf_Id>
95

> <Delta U+W>
-2.289

> <U+W>
4.134

> <U>
6.373

> <W>
-2.240

> <W(PB)>
-4.254

> <W(SA)>
2.015

> <Valence>
12.093

> <Coulomb>
-8.058

> <VdW>
2.339

> <VdW6>
-9.683

> <VdW12>
12.022

> <Bond>
0.268

> <Angle>
3.005

> <Pdih>
8.820

> <Idih>
0.000

> <Tether>
0.000

$$$$
VeraChem MOL file


 22 22  0  0  0  0  0  0  0  0999 V2000     
   20.5802   21.0863   21.5924 C   0  0  0  0  0  0  0  0  0  0  0  0
   21.3920   21.1085   20.8527 H   0  0  0  0  0  0  0  0  0  0  0  0
   20.1005   22.0731   21.5382 H   0  0  0  0  0  0  0  0  0  0  0  0
   21.2086   20.9113   22.9956 C   0  0  0  0  0  0  0  0  0  0  0  0
   22.0832   20.2506   22.9250 H   0  0  0  0  0  0  0  0  0  0  0  0
   21.6022   21.8859   23.3150 H   0  0  0  0  0  0  0  0  0  0  0  0
   20.2467   20.3776   24.0826 C   0  0  0  0  0  0  0  0  0  0  0  0
   19.2391   20.7967   23.9561 H   0  0  0  0  0  0  0  0  0  0  0  0
   20.6047   20.7334   25.0581 H   0  0  0  0  0  0  0  0  0  0  0  0
   20.2010   18.8295   24.1322 C   0  0  0  0  0  0  0  0  0  0  0  0
   21.2269   18.4412   24.1719 H   0  0  0  0  0  0  0  0  0  0  0  0
   19.7368   18.5222   25.0783 H   0  0  0  0  0  0  0  0  0  0  0  0
   19.4527   18.1317   22.9733 C   0  0  0  0  0  0  0  0  0  0  0  0
   19.6620   17.0559   23.0622 H   0  0  0  0  0  0  0  0  0  0  0  0
   19.8921   18.5639   21.5519 C   0  0  0  0  0  0  0  0  0  0  0  0
   20.9681   18.3901   21.4233 H   0  0  0  0  0  0  0  0  0  0  0  0
   19.3930   17.8935   20.8404 H   0  0  0  0  0  0  0  0  0  0  0  0
   19.5381   20.0242   21.1676 C   0  0  0  0  0  0  0  0  0  0  0  0
   19.4216   20.0834   20.0771 H   0  0  0  0  0  0  0  0  0  0  0  0
   18.5555   20.2906   21.5787 H   0  0  0  0  0  0  0  0  0  0  0  0
   18.0505   18.3254   23.1322 O   0  0  0  0  0  0  0  0  0  0  0  0
   17.8308   18.0546   24.0468 H   0  0  0  0  0  0  0  0  0  0  0  0
  1  2  1  0  0  0  0
  1  3  1  0  0  0  0
  1  4  1  0  0  0  0
  4  5  1  0  0  0  0
  4  6  1  0  0  0  0
  4  7  1  0  0  0  0
  7  8  1  0  0  0  0
  7  9  1  0  0  0  0
  7 10  1  0  0  0  0
 10 11  1  0  0  0  0
 10 12  1  0  0  0  0
 10 13  1  0  0  0  0
 13 14  1  0  0  0  0
 13 15  1  0  0  0  0
 15 16  1  0  0  0  0
 15 17  1  0  0  0  0
  1 18  1  0  0  0  0
 15 18  1  0  0  0  0
 18 19  1  0  0  0  0
 18 20  1  0  0  0  0
 13 21  1  0  0  0  0
 21 22  1  0  0  0  0
M  END
> <VConfSearch Rank>
253

> <Conf_Id>
41

> <Delta U+W>
-2.114

> <U+W>
4.310

> <U>
6.598

> <W>
-2.289

> <W(PB)>
-4.294

> <W(SA)>
2.005

> <Valence>
12.082

> <Coulomb>
-7.801

> <VdW>
2.317

> <VdW6>
-9.658

> <VdW12>
11.975

> <Bond>
0.267

> <Angle>
3.051

> <Pdih>
8.764

> <Idih>
0.000

> <Tether>
0.000

$$$$
VeraChem MOL file


 22 22  0  0  0  0  0  0  0  0999 V2000     
   21.0326   20.5965   23.5865 C   0  0  0  0  0  0  0  0  0  0  0  0
   21.8087   21.0836   24.1923 H   0  0  0  0  0  0  0  0  0  0  0  0
   20.4917   21.4030   23.0726 H   0  0  0  0  0  0  0  0  0  0  0  0
   20.0925   19.8327   24.5457 C   0  0  0  0  0  0  0  0  0  0  0  0
   20.6353   18.9936   25.0016 H   0  0  0  0  0  0  0  0  0  0  0  0
   19.8191   20.5001   25.3742 H   0  0  0  0  0  0  0  0  0  0  0  0
   18.7922   19.3124   23.8947 C   0  0  0  0  0  0  0  0  0  0  0  0
   18.1509   20.1633   23.6288 H   0  0  0  0  0  0  0  0  0  0  0  0
   18.2343   18.7504   24.6556 H   0  0  0  0  0  0  0  0  0  0  0  0
   18.9945   18.3935   22.6595 C   0  0  0  0  0  0  0  0  0  0  0  0
   19.6968   17.5858   22.9019 H   0  0  0  0  0  0  0  0  0  0  0  0
   18.0362   17.9004   22.4519 H   0  0  0  0  0  0  0  0  0  0  0  0
   19.4367   19.1006   21.3524 C   0  0  0  0  0  0  0  0  0  0  0  0
   19.2270   18.4019   20.5295 H   0  0  0  0  0  0  0  0  0  0  0  0
   20.9442   19.4493   21.2482 C   0  0  0  0  0  0  0  0  0  0  0  0
   21.4419   18.6397   20.6987 H   0  0  0  0  0  0  0  0  0  0  0  0
   21.0626   20.3404   20.6178 H   0  0  0  0  0  0  0  0  0  0  0  0
   21.7274   19.6676   22.5665 C   0  0  0  0  0  0  0  0  0  0  0  0
   21.9465   18.6987   23.0351 H   0  0  0  0  0  0  0  0  0  0  0  0
   22.7049   20.0976   22.3089 H   0  0  0  0  0  0  0  0  0  0  0  0
   18.6569   20.2728   21.1317 O   0  0  0  0  0  0  0  0  0  0  0  0
   18.9514   20.6518   20.2787 H   0  0  0  0  0  0  0  0  0  0  0  0
  1  2  1  0  0  0  0
  1  3  1  0  0  0  0
  1  4  1  0  0  0  0
  4  5  1  0  0  0  0
  4  6  1  0  0  0  0
  4  7  1  0  0  0  0
  7  8  1  0  0  0  0
  7  9  1  0  0  0  0
  7 10  1  0  0  0  0
 10 11  1  0  0  0  0
 10 12  1  0  0  0  0
 10 13  1  0  0  0  0
 13 14  1  0  0  0  0
 13 15  1  0  0  0  0
 15 16  1  0  0  0  0
 15 17  1  0  0  0  0
  1 18  1  0  0  0  0
 15 18  1  0  0  0  0
 18 19  1  0  0  0  0
 18 20  1  0  0  0  0
 13 21  1  0  0  0  0
 21 22  1  0  0  0  0
M  END
> <VConfSearch Rank>
254

> <Conf_Id>
104

> <Delta U+W>
-1.172

> <U+W>
5.252

> <U>
7.482

> <W>
-2.230

> <W(PB)>
-4.220

> <W(SA)>
1.990

> <Valence>
12.309

> <Coulomb>
-7.084

> <VdW>
2.258

> <VdW6>
-9.770

> <VdW12>
12.028

> <Bond>
0.284

> <Angle>
3.491

> <Pdih>
8.535

> <Idih>
0.000

> <Tether>
0.000

$$$$
VeraChem MOL file


 22 22  0  0  0  0  0  0  0  0999 V2000     
   19.7071   21.1280   23.1226 C   0  0  0  0  0  0  0  0  0  0  0  0
   19.4697   20.8368   24.1547 H   0  0  0  0  0  0  0  0  0  0  0  0
   19.5315   22.2111   23.0662 H   0  0  0  0  0  0  0  0  0  0  0  0
   18.7506   20.4413   22.1211 C   0  0  0  0  0  0  0  0  0  0  0  0
   17.7982   20.9891   22.1144 H   0  0  0  0  0  0  0  0  0  0  0  0
   19.1487   20.5516   21.1039 H   0  0  0  0  0  0  0  0  0  0  0  0
   18.4357   18.9511   22.4073 C   0  0  0  0  0  0  0  0  0  0  0  0
   18.1556   18.4670   21.4615 H   0  0  0  0  0  0  0  0  0  0  0  0
   17.5372   18.9007   23.0374 H   0  0  0  0  0  0  0  0  0  0  0  0
   19.5416   18.1108   23.1017 C   0  0  0  0  0  0  0  0  0  0  0  0
   19.5375   18.3310   24.1771 H   0  0  0  0  0  0  0  0  0  0  0  0
   19.2618   17.0522   23.0239 H   0  0  0  0  0  0  0  0  0  0  0  0
   20.9842   18.2669   22.5684 C   0  0  0  0  0  0  0  0  0  0  0  0
   21.5409   17.3656   22.8628 H   0  0  0  0  0  0  0  0  0  0  0  0
   21.7261   19.4725   23.1883 C   0  0  0  0  0  0  0  0  0  0  0  0
   21.7092   19.3716   24.2813 H   0  0  0  0  0  0  0  0  0  0  0  0
   22.7839   19.4074   22.9020 H   0  0  0  0  0  0  0  0  0  0  0  0
   21.2010   20.8785   22.8060 C   0  0  0  0  0  0  0  0  0  0  0  0
   21.7981   21.6207   23.3531 H   0  0  0  0  0  0  0  0  0  0  0  0
   21.3937   21.0714   21.7420 H   0  0  0  0  0  0  0  0  0  0  0  0
   20.9844   18.3674   21.1528 O   0  0  0  0  0  0  0  0  0  0  0  0
   20.4069   19.1347   20.9681 H   0  0  0  0  0  0  0  0  0  0  0  0
  1  2  1  0  0  0  0
  1  3  1  0  0  0  0
  1  4  1  0  0  0  0
  4  5  1  0  0  0  0
  4  6  1  0  0  0  0
  4  7  1  0  0  0  0
  7  8  1  0  0  0  0
  7  9  1  0  0  0  0
  7 10  1  0  0  0  0
 10 11  1  0  0  0  0
 10 12  1  0  0  0  0
 10 13  1  0  0  0  0
 13 14  1  0  0  0  0
 13 15  1  0  0  0  0
 15 16  1  0  0  0  0
 15 17  1  0  0  0  0
  1 18  1  0  0  0  0
 15 18  1  0  0  0  0
 18 19  1  0  0  0  0
 18 20  1  0  0  0  0
 13 21  1  0  0  0  0
 21 22  1  0  0  0  0
M  END
> <VConfSearch Rank>
255

> <Conf_Id>
99

> <Delta U+W>
-3.852

> <U+W>
2.572

> <U>
3.922

> <W>
-1.350

> <W(PB)>
-3.345

> <W(SA)>
1.995

> <Valence>
12.571

> <Coulomb>
-10.581

> <VdW>
1.932

> <VdW6>
-10.483

> <VdW12>
12.415

> <Bond>
0.268

> <Angle>
3.728

> <Pdih>
8.575

> <Idih>
0.000

> <Tether>
0.000

$$$$
VeraChem MOL file


 22 22  0  0  0  0  0  0  0  0999 V2000     
   19.4855   19.6121   24.2365 C   0  0  0  0  0  0  0  0  0  0  0  0
   18.6676   19.5175   24.9641 H   0  0  0  0  0  0  0  0  0  0  0  0
   20.3813   19.8065   24.8413 H   0  0  0  0  0  0  0  0  0  0  0  0
   19.1760   20.8372   23.3270 C   0  0  0  0  0  0  0  0  0  0  0  0
   18.2243   21.2730   23.6611 H   0  0  0  0  0  0  0  0  0  0  0  0
   19.9215   21.6271   23.4896 H   0  0  0  0  0  0  0  0  0  0  0  0
   19.0540   20.5431   21.8100 C   0  0  0  0  0  0  0  0  0  0  0  0
   18.6477   21.4360   21.3156 H   0  0  0  0  0  0  0  0  0  0  0  0
   18.2968   19.7670   21.6430 H   0  0  0  0  0  0  0  0  0  0  0  0
   20.3716   20.1555   21.0831 C   0  0  0  0  0  0  0  0  0  0  0  0
   20.1103   19.6079   20.1684 H   0  0  0  0  0  0  0  0  0  0  0  0
   20.8621   21.0762   20.7398 H   0  0  0  0  0  0  0  0  0  0  0  0
   21.4234   19.3303   21.8647 C   0  0  0  0  0  0  0  0  0  0  0  0
   22.1573   18.9700   21.1296 H   0  0  0  0  0  0  0  0  0  0  0  0
   20.8948   18.0859   22.6197 C   0  0  0  0  0  0  0  0  0  0  0  0
   20.6956   17.2935   21.8867 H   0  0  0  0  0  0  0  0  0  0  0  0
   21.7143   17.7046   23.2434 H   0  0  0  0  0  0  0  0  0  0  0  0
   19.6336   18.2494   23.5127 C   0  0  0  0  0  0  0  0  0  0  0  0
   18.7323   18.0439   22.9219 H   0  0  0  0  0  0  0  0  0  0  0  0
   19.6536   17.4548   24.2710 H   0  0  0  0  0  0  0  0  0  0  0  0
   22.1167   20.1765   22.7684 O   0  0  0  0  0  0  0  0  0  0  0  0
   21.4258   20.4681   23.3965 H   0  0  0  0  0  0  0  0  0  0  0  0
  1  2  1  0  0  0  0
  1  3  1  0  0  0  0
  1  4  1  0  0  0  0
  4  5  1  0  0  0  0
  4  6  1  0  0  0  0
  4  7  1  0  0  0  0
  7  8  1  0  0  0  0
  7  9  1  0  0  0  0
  7 10  1  0  0  0  0
 10 11  1  0  0  0  0
 10 12  1  0  0  0  0
 10 13  1  0  0  0  0
 13 14  1  0  0  0  0
 13 15  1  0  0  0  0
 15 16  1  0  0  0  0
 15 17  1  0  0  0  0
  1 18  1  0  0  0  0
 15 18  1  0  0  0  0
 18 19  1  0  0  0  0
 18 20  1  0  0  0  0
 13 21  1  0  0  0  0
 21 22  1  0  0  0  0
M  END
> <VConfSearch Rank>
256

> <Conf_Id>
98

> <Delta U+W>
0.930

> <U+W>
7.353

> <U>
8.455

> <W>
-1.102

> <W(PB)>
-3.101

> <W(SA)>
2.000

> <Valence>
15.601

> <Coulomb>
-10.573

> <VdW>
3.427

> <VdW6>
-11.360

> <VdW12>
14.787

> <Bond>
0.471

> <Angle>
5.445

> <Pdih>
9.685

> <Idih>
0.000

> <Tether>
0.000

$$$$
VeraChem MOL file


 22 22  0  0  0  0  0  0  0  0999 V2000     
   21.1196   19.2624   21.3659 C   0  0  0  0  0  0  0  0  0  0  0  0
   20.7733   20.2122   20.9384 H   0  0  0  0  0  0  0  0  0  0  0  0
   21.9142   18.9183   20.6899 H   0  0  0  0  0  0  0  0  0  0  0  0
   19.9677   18.2258   21.3412 C   0  0  0  0  0  0  0  0  0  0  0  0
   19.6592   18.0992   20.2945 H   0  0  0  0  0  0  0  0  0  0  0  0
   20.3481   17.2457   21.6598 H   0  0  0  0  0  0  0  0  0  0  0  0
   18.7068   18.5804   22.1773 C   0  0  0  0  0  0  0  0  0  0  0  0
   18.6977   18.0001   23.1091 H   0  0  0  0  0  0  0  0  0  0  0  0
   17.8216   18.2396   21.6234 H   0  0  0  0  0  0  0  0  0  0  0  0
   18.5383   20.0877   22.5050 C   0  0  0  0  0  0  0  0  0  0  0  0
   18.6121   20.6682   21.5770 H   0  0  0  0  0  0  0  0  0  0  0  0
   17.5112   20.2510   22.8584 H   0  0  0  0  0  0  0  0  0  0  0  0
   19.5307   20.6709   23.5532 C   0  0  0  0  0  0  0  0  0  0  0  0
   19.9140   21.6248   23.1628 H   0  0  0  0  0  0  0  0  0  0  0  0
   20.7420   19.7738   23.9111 C   0  0  0  0  0  0  0  0  0  0  0  0
   21.2937   20.2355   24.7402 H   0  0  0  0  0  0  0  0  0  0  0  0
   20.3869   18.8138   24.3045 H   0  0  0  0  0  0  0  0  0  0  0  0
   21.7443   19.5199   22.7574 C   0  0  0  0  0  0  0  0  0  0  0  0
   22.4177   20.3839   22.6750 H   0  0  0  0  0  0  0  0  0  0  0  0
   22.3805   18.6670   23.0302 H   0  0  0  0  0  0  0  0  0  0  0  0
   18.8167   20.9236   24.7580 O   0  0  0  0  0  0  0  0  0  0  0  0
   19.4489   21.3420   25.3788 H   0  0  0  0  0  0  0  0  0  0  0  0
  1  2  1  0  0  0  0
  1  3  1  0  0  0  0
  1  4  1  0  0  0  0
  4  5  1  0  0  0  0
  4  6  1  0  0  0  0
  4  7  1  0  0  0  0
  7  8  1  0  0  0  0
  7  9  1  0  0  0  0
  7 10  1  0  0  0  0
 10 11  1  0  0  0  0
 10 12  1  0  0  0  0
 10 13  1  0  0  0  0
 13 14  1  0  0  0  0
 13 15  1  0  0  0  0
 15 16  1  0  0  0  0
 15 17  1  0  0  0  0
  1 18  1  0  0  0  0
 15 18  1  0  0  0  0
 18 19  1  0  0  0  0
 18 20  1  0  0  0  0
 13 21  1  0  0  0  0
 21 22  1  0  0  0  0
M  END
> <VConfSearch Rank>
257

> <Conf_Id>
141

> <Delta U+W>
0.000

> <U+W>
6.423

> <U>
8.781

> <W>
-2.358

> <W(PB)>
-4.373

> <W(SA)>
2.015

> <Valence>
13.328

> <Coulomb>
-8.387

> <VdW>
3.840

> <VdW6>
-9.744

> <VdW12>
13.584

> <Bond>
0.436

> <Angle>
3.478

> <Pdih>
9.415

> <Idih>
0.000

> <Tether>
0.000

$$$$
VeraChem MOL file


 22 22  0  0  0  0  0  0  0  0999 V2000     
   18.2486   19.7822   22.5320 C   0  0  0  0  0  0  0  0  0  0  0  0
   18.3583   19.8481   21.4410 H   0  0  0  0  0  0  0  0  0  0  0  0
   17.1687   19.8147   22.7311 H   0  0  0  0  0  0  0  0  0  0  0  0
   18.8915   21.0062   23.2280 C   0  0  0  0  0  0  0  0  0  0  0  0
   18.2956   21.8976   22.9888 H   0  0  0  0  0  0  0  0  0  0  0  0
   18.8214   20.8839   24.3175 H   0  0  0  0  0  0  0  0  0  0  0  0
   20.3606   21.2896   22.8387 C   0  0  0  0  0  0  0  0  0  0  0  0
   20.7190   22.1326   23.4451 H   0  0  0  0  0  0  0  0  0  0  0  0
   20.4022   21.6319   21.7956 H   0  0  0  0  0  0  0  0  0  0  0  0
   21.3295   20.0970   23.0290 C   0  0  0  0  0  0  0  0  0  0  0  0
   22.3533   20.4844   22.9452 H   0  0  0  0  0  0  0  0  0  0  0  0
   21.2411   19.6842   24.0423 H   0  0  0  0  0  0  0  0  0  0  0  0
   21.1247   18.9877   21.9730 C   0  0  0  0  0  0  0  0  0  0  0  0
   20.8085   19.4619   21.0327 H   0  0  0  0  0  0  0  0  0  0  0  0
   20.0725   17.9224   22.3566 C   0  0  0  0  0  0  0  0  0  0  0  0
   19.7826   17.3971   21.4374 H   0  0  0  0  0  0  0  0  0  0  0  0
   20.5399   17.1656   23.0008 H   0  0  0  0  0  0  0  0  0  0  0  0
   18.7918   18.4345   23.0619 C   0  0  0  0  0  0  0  0  0  0  0  0
   18.0132   17.6676   22.9506 H   0  0  0  0  0  0  0  0  0  0  0  0
   18.9740   18.5137   24.1423 H   0  0  0  0  0  0  0  0  0  0  0  0
   22.3648   18.3250   21.7580 O   0  0  0  0  0  0  0  0  0  0  0  0
   22.9971   19.0045   21.4429 H   0  0  0  0  0  0  0  0  0  0  0  0
  1  2  1  0  0  0  0
  1  3  1  0  0  0  0
  1  4  1  0  0  0  0
  4  5  1  0  0  0  0
  4  6  1  0  0  0  0
  4  7  1  0  0  0  0
  7  8  1  0  0  0  0
  7  9  1  0  0  0  0
  7 10  1  0  0  0  0
 10 11  1  0  0  0  0
 10 12  1  0  0  0  0
 10 13  1  0  0  0  0
 13 14  1  0  0  0  0
 13 15  1  0  0  0  0
 15 16  1  0  0  0  0
 15 17  1  0  0  0  0
  1 18  1  0  0  0  0
 15 18  1  0  0  0  0
 18 19  1  0  0  0  0
 18 20  1  0  0  0  0
 13 21  1  0  0  0  0
 21 22  1  0  0  0  0
M  END
> <VConfSearch Rank>
258

> <Conf_Id>
144

> <Delta U+W>
-3.291

> <U+W>
3.132

> <U>
5.411

> <W>
-2.279

> <W(PB)>
-4.300

> <W(SA)>
2.021

> <Valence>
11.909

> <Coulomb>
-8.733

> <VdW>
2.236

> <VdW6>
-8.936

> <VdW12>
11.172

> <Bond>
0.223

> <Angle>
2.457

> <Pdih>
9.228

> <Idih>
0.000

> <Tether>
0.000

$$$$
VeraChem MOL file


 22 22  0  0  0  0  0  0  0  0999 V2000     
   21.6265   19.1603   22.7167 C   0  0  0  0  0  0  0  0  0  0  0  0
   22.6955   19.0431   22.4922 H   0  0  0  0  0  0  0  0  0  0  0  0
   21.4742   18.7165   23.7100 H   0  0  0  0  0  0  0  0  0  0  0  0
   20.8246   18.3914   21.6407 C   0  0  0  0  0  0  0  0  0  0  0  0
   20.7220   19.0178   20.7441 H   0  0  0  0  0  0  0  0  0  0  0  0
   21.4069   17.5162   21.3213 H   0  0  0  0  0  0  0  0  0  0  0  0
   19.4288   17.8966   22.0911 C   0  0  0  0  0  0  0  0  0  0  0  0
   19.5425   16.9425   22.6237 H   0  0  0  0  0  0  0  0  0  0  0  0
   18.8402   17.6678   21.1920 H   0  0  0  0  0  0  0  0  0  0  0  0
   18.6173   18.8587   22.9934 C   0  0  0  0  0  0  0  0  0  0  0  0
   17.5649   18.5466   22.9561 H   0  0  0  0  0  0  0  0  0  0  0  0
   18.9307   18.7246   24.0368 H   0  0  0  0  0  0  0  0  0  0  0  0
   18.7256   20.3530   22.6155 C   0  0  0  0  0  0  0  0  0  0  0  0
   18.8152   20.4514   21.5243 H   0  0  0  0  0  0  0  0  0  0  0  0
   19.9228   21.0518   23.2992 C   0  0  0  0  0  0  0  0  0  0  0  0
   19.7992   22.1386   23.1999 H   0  0  0  0  0  0  0  0  0  0  0  0
   19.9033   20.8416   24.3764 H   0  0  0  0  0  0  0  0  0  0  0  0
   21.3131   20.6757   22.7341 C   0  0  0  0  0  0  0  0  0  0  0  0
   21.4148   21.0809   21.7180 H   0  0  0  0  0  0  0  0  0  0  0  0
   22.0776   21.1846   23.3369 H   0  0  0  0  0  0  0  0  0  0  0  0
   17.5378   21.0083   23.0396 O   0  0  0  0  0  0  0  0  0  0  0  0
   17.4928   20.8977   24.0116 H   0  0  0  0  0  0  0  0  0  0  0  0
  1  2  1  0  0  0  0
  1  3  1  0  0  0  0
  1  4  1  0  0  0  0
  4  5  1  0  0  0  0
  4  6  1  0  0  0  0
  4  7  1  0  0  0  0
  7  8  1  0  0  0  0
  7  9  1  0  0  0  0
  7 10  1  0  0  0  0
 10 11  1  0  0  0  0
 10 12  1  0  0  0  0
 10 13  1  0  0  0  0
 13 14  1  0  0  0  0
 13 15  1  0  0  0  0
 15 16  1  0  0  0  0
 15 17  1  0  0  0  0
  1 18  1  0  0  0  0
 15 18  1  0  0  0  0
 18 19  1  0  0  0  0
 18 20  1  0  0  0  0
 13 21  1  0  0  0  0
 21 22  1  0  0  0  0
M  END
> <VConfSearch Rank>
259

> <Conf_Id>
76

> <Delta U+W>
-3.175

> <U+W>
3.248

> <U>
5.336

> <W>
-2.088

> <W(PB)>
-4.098

> <W(SA)>
2.010

> <Valence>
12.390

> <Coulomb>
-9.270

> <VdW>
2.216

> <VdW6>
-8.967

> <VdW12>
11.183

> <Bond>
0.218

> <Angle>
2.426

> <Pdih>
9.745

> <Idih>
0.000

> <Tether>
0.000

$$$$
VeraChem MOL file


 22 22  0  0  0  0  0  0  0  0999 V2000     
   18.3163   18.9405   22.4317 C   0  0  0  0  0  0  0  0  0  0  0  0
   17.8171   18.7363   21.4748 H   0  0  0  0  0  0  0  0  0  0  0  0
   17.6062   18.6307   23.2106 H   0  0  0  0  0  0  0  0  0  0  0  0
   18.5465   20.4668   22.5415 C   0  0  0  0  0  0  0  0  0  0  0  0
   18.7909   20.8729   21.5506 H   0  0  0  0  0  0  0  0  0  0  0  0
   17.5932   20.9344   22.8233 H   0  0  0  0  0  0  0  0  0  0  0  0
   19.6340   20.8934   23.5549 C   0  0  0  0  0  0  0  0  0  0  0  0
   19.6162   20.2503   24.4454 H   0  0  0  0  0  0  0  0  0  0  0  0
   19.3948   21.9063   23.9057 H   0  0  0  0  0  0  0  0  0  0  0  0
   21.0525   20.9326   22.9317 C   0  0  0  0  0  0  0  0  0  0  0  0
   21.0239   21.5219   22.0063 H   0  0  0  0  0  0  0  0  0  0  0  0
   21.7182   21.4818   23.6104 H   0  0  0  0  0  0  0  0  0  0  0  0
   21.7041   19.5638   22.6300 C   0  0  0  0  0  0  0  0  0  0  0  0
   22.6064   19.7664   22.0351 H   0  0  0  0  0  0  0  0  0  0  0  0
   20.8284   18.5832   21.8102 C   0  0  0  0  0  0  0  0  0  0  0  0
   20.5349   19.0507   20.8615 H   0  0  0  0  0  0  0  0  0  0  0  0
   21.4581   17.7271   21.5358 H   0  0  0  0  0  0  0  0  0  0  0  0
   19.5738   18.0463   22.5471 C   0  0  0  0  0  0  0  0  0  0  0  0
   19.3222   17.0569   22.1418 H   0  0  0  0  0  0  0  0  0  0  0  0
   19.8036   17.8761   23.6072 H   0  0  0  0  0  0  0  0  0  0  0  0
   22.1067   18.9554   23.8530 O   0  0  0  0  0  0  0  0  0  0  0  0
   22.4644   18.0740   23.6216 H   0  0  0  0  0  0  0  0  0  0  0  0
  1  2  1  0  0  0  0
  1  3  1  0  0  0  0
  1  4  1  0  0  0  0
  4  5  1  0  0  0  0
  4  6  1  0  0  0  0
  4  7  1  0  0  0  0
  7  8  1  0  0  0  0
  7  9  1  0  0  0  0
  7 10  1  0  0  0  0
 10 11  1  0  0  0  0
 10 12  1  0  0  0  0
 10 13  1  0  0  0  0
 13 14  1  0  0  0  0
 13 15  1  0  0  0  0
 15 16  1  0  0  0  0
 15 17  1  0  0  0  0
  1 18  1  0  0  0  0
 15 18  1  0  0  0  0
 18 19  1  0  0  0  0
 18 20  1  0  0  0  0
 13 21  1  0  0  0  0
 21 22  1  0  0  0  0
M  END
> <VConfSearch Rank>
260

> <Conf_Id>
95

> <Delta U+W>
-2.289

> <U+W>
4.134

> <U>
6.373

> <W>
-2.240

> <W(PB)>
-4.254

> <W(SA)>
2.015

> <Valence>
12.093

> <Coulomb>
-8.058

> <VdW>
2.339

> <VdW6>
-9.683

> <VdW12>
12.022

> <Bond>
0.268

> <Angle>
3.005

> <Pdih>
8.820

> <Idih>
0.000

> <Tether>
0.000

$$$$
VeraChem MOL file


 22 22  0  0  0  0  0  0  0  0999 V2000     
   20.9261   18.1212   23.4842 C   0  0  0  0  0  0  0  0  0  0  0  0
   21.3476   18.0320   24.4947 H   0  0  0  0  0  0  0  0  0  0  0  0
   21.0779   17.1417   23.0106 H   0  0  0  0  0  0  0  0  0  0  0  0
   21.7433   19.1835   22.7110 C   0  0  0  0  0  0  0  0  0  0  0  0
   22.0407   19.9875   23.3977 H   0  0  0  0  0  0  0  0  0  0  0  0
   22.6817   18.7166   22.3822 H   0  0  0  0  0  0  0  0  0  0  0  0
   21.0288   19.7936   21.4826 C   0  0  0  0  0  0  0  0  0  0  0  0
   20.4356   19.0340   20.9553 H   0  0  0  0  0  0  0  0  0  0  0  0
   21.7977   20.1271   20.7727 H   0  0  0  0  0  0  0  0  0  0  0  0
   20.1579   21.0224   21.8472 C   0  0  0  0  0  0  0  0  0  0  0  0
   20.7561   21.7214   22.4460 H   0  0  0  0  0  0  0  0  0  0  0  0
   19.9131   21.5651   20.9250 H   0  0  0  0  0  0  0  0  0  0  0  0
   18.8418   20.7258   22.6018 C   0  0  0  0  0  0  0  0  0  0  0  0
   18.4409   21.6944   22.9339 H   0  0  0  0  0  0  0  0  0  0  0  0
   18.9924   19.8399   23.8639 C   0  0  0  0  0  0  0  0  0  0  0  0
   19.6966   20.3045   24.5659 H   0  0  0  0  0  0  0  0  0  0  0  0
   18.0204   19.8342   24.3739 H   0  0  0  0  0  0  0  0  0  0  0  0
   19.4025   18.3690   23.5921 C   0  0  0  0  0  0  0  0  0  0  0  0
   19.0150   17.7392   24.4041 H   0  0  0  0  0  0  0  0  0  0  0  0
   18.9072   18.0056   22.6820 H   0  0  0  0  0  0  0  0  0  0  0  0
   17.9034   20.1420   21.7032 O   0  0  0  0  0  0  0  0  0  0  0  0
   17.8597   20.7292   20.9213 H   0  0  0  0  0  0  0  0  0  0  0  0
  1  2  1  0  0  0  0
  1  3  1  0  0  0  0
  1  4  1  0  0  0  0
  4  5  1  0  0  0  0
  4  6  1  0  0  0  0
  4  7  1  0  0  0  0
  7  8  1  0  0  0  0
  7  9  1  0  0  0  0
  7 10  1  0  0  0  0
 10 11  1  0  0  0  0
 10 12  1  0  0  0  0
 10 13  1  0  0  0  0
 13 14  1  0  0  0  0
 13 15  1  0  0  0  0
 15 16  1  0  0  0  0
 15 17  1  0  0  0  0
  1 18  1  0  0  0  0
 15 18  1  0  0  0  0
 18 19  1  0  0  0  0
 18 20  1  0  0  0  0
 13 21  1  0  0  0  0
 21 22  1  0  0  0  0
M  END
> <VConfSearch Rank>
261

> <Conf_Id>
41

> <Delta U+W>
-2.114

> <U+W>
4.310

> <U>
6.598

> <W>
-2.289

> <W(PB)>
-4.294

> <W(SA)>
2.005

> <Valence>
12.082

> <Coulomb>
-7.801

> <VdW>
2.317

> <VdW6>
-9.658

> <VdW12>
11.975

> <Bond>
0.267

> <Angle>
3.051

> <Pdih>
8.764

> <Idih>
0.000

> <Tether>
0.000

$$$$
VeraChem MOL file


 22 22  0  0  0  0  0  0  0  0999 V2000     
   21.2729   19.4544   23.8813 C   0  0  0  0  0  0  0  0  0  0  0  0
   22.2148   19.3903   24.4427 H   0  0  0  0  0  0  0  0  0  0  0  0
   20.5231   19.8474   24.5817 H   0  0  0  0  0  0  0  0  0  0  0  0
   20.8970   18.0279   23.4218 C   0  0  0  0  0  0  0  0  0  0  0  0
   21.6240   17.6784   22.6763 H   0  0  0  0  0  0  0  0  0  0  0  0
   20.9928   17.3469   24.2783 H   0  0  0  0  0  0  0  0  0  0  0  0
   19.4681   17.8902   22.8522 C   0  0  0  0  0  0  0  0  0  0  0  0
   18.7375   18.0346   23.6592 H   0  0  0  0  0  0  0  0  0  0  0  0
   19.3357   16.8524   22.5180 H   0  0  0  0  0  0  0  0  0  0  0  0
   19.1384   18.8321   21.6625 C   0  0  0  0  0  0  0  0  0  0  0  0
   19.9109   18.7454   20.8880 H   0  0  0  0  0  0  0  0  0  0  0  0
   18.2120   18.4696   21.1988 H   0  0  0  0  0  0  0  0  0  0  0  0
   18.9165   20.3246   22.0196 C   0  0  0  0  0  0  0  0  0  0  0  0
   18.3930   20.7786   21.1657 H   0  0  0  0  0  0  0  0  0  0  0  0
   20.2006   21.1670   22.2354 C   0  0  0  0  0  0  0  0  0  0  0  0
   20.4363   21.6732   21.2903 H   0  0  0  0  0  0  0  0  0  0  0  0
   19.9837   21.9736   22.9479 H   0  0  0  0  0  0  0  0  0  0  0  0
   21.4798   20.4271   22.6992 C   0  0  0  0  0  0  0  0  0  0  0  0
   21.9292   19.8920   21.8518 H   0  0  0  0  0  0  0  0  0  0  0  0
   22.2181   21.1854   22.9935 H   0  0  0  0  0  0  0  0  0  0  0  0
   18.0677   20.4437   23.1581 O   0  0  0  0  0  0  0  0  0  0  0  0
   17.9320   21.4009   23.3106 H   0  0  0  0  0  0  0  0  0  0  0  0
  1  2  1  0  0  0  0
  1  3  1  0  0  0  0
  1  4  1  0  0  0  0
  4  5  1  0  0  0  0
  4  6  1  0  0  0  0
  4  7  1  0  0  0  0
  7  8  1  0  0  0  0
  7  9  1  0  0  0  0
  7 10  1  0  0  0  0
 10 11  1  0  0  0  0
 10 12  1  0  0  0  0
 10 13  1  0  0  0  0
 13 14  1  0  0  0  0
 13 15  1  0  0  0  0
 15 16  1  0  0  0  0
 15 17  1  0  0  0  0
  1 18  1  0  0  0  0
 15 18  1  0  0  0  0
 18 19  1  0  0  0  0
 18 20  1  0  0  0  0
 13 21  1  0  0  0  0
 21 22  1  0  0  0  0
M  END
> <VConfSearch Rank>
262

> <Conf_Id>
104

> <Delta U+W>
-1.172

> <U+W>
5.252

> <U>
7.482

> <W>
-2.230

> <W(PB)>
-4.220

> <W(SA)>
1.990

> <Valence>
12.309

> <Coulomb>
-7.084

> <VdW>
2.258

> <VdW6>
-9.770

> <VdW12>
12.028

> <Bond>
0.284

> <Angle>
3.491

> <Pdih>
8.535

> <Idih>
0.000

> <Tether>
0.000

$$$$
VeraChem MOL file


 22 22  0  0  0  0  0  0  0  0999 V2000     
   19.8756   21.1774   23.0473 C   0  0  0  0  0  0  0  0  0  0  0  0
   20.5415   21.1145   23.9185 H   0  0  0  0  0  0  0  0  0  0  0  0
   19.5140   22.2144   23.0175 H   0  0  0  0  0  0  0  0  0  0  0  0
   18.6485   20.2538   23.2224 C   0  0  0  0  0  0  0  0  0  0  0  0
   17.9245   20.7541   23.8804 H   0  0  0  0  0  0  0  0  0  0  0  0
   18.1317   20.1491   22.2595 H   0  0  0  0  0  0  0  0  0  0  0  0
   18.9412   18.8544   23.8206 C   0  0  0  0  0  0  0  0  0  0  0  0
   18.1530   18.1635   23.4910 H   0  0  0  0  0  0  0  0  0  0  0  0
   18.8372   18.9148   24.9126 H   0  0  0  0  0  0  0  0  0  0  0  0
   20.3287   18.2268   23.5170 C   0  0  0  0  0  0  0  0  0  0  0  0
   21.0797   18.6798   24.1771 H   0  0  0  0  0  0  0  0  0  0  0  0
   20.2924   17.1685   23.8062 H   0  0  0  0  0  0  0  0  0  0  0  0
   20.8352   18.3093   22.0587 C   0  0  0  0  0  0  0  0  0  0  0  0
   21.5840   17.5150   21.9272 H   0  0  0  0  0  0  0  0  0  0  0  0
   21.5425   19.6467   21.7437 C   0  0  0  0  0  0  0  0  0  0  0  0
   22.3595   19.7902   22.4627 H   0  0  0  0  0  0  0  0  0  0  0  0
   22.0256   19.5553   20.7620 H   0  0  0  0  0  0  0  0  0  0  0  0
   20.6527   20.9143   21.7355 C   0  0  0  0  0  0  0  0  0  0  0  0
   21.3012   21.7791   21.5396 H   0  0  0  0  0  0  0  0  0  0  0  0
   19.9531   20.8728   20.8898 H   0  0  0  0  0  0  0  0  0  0  0  0
   19.7687   18.0933   21.1475 O   0  0  0  0  0  0  0  0  0  0  0  0
   19.1132   18.7805   21.3803 H   0  0  0  0  0  0  0  0  0  0  0  0
  1  2  1  0  0  0  0
  1  3  1  0  0  0  0
  1  4  1  0  0  0  0
  4  5  1  0  0  0  0
  4  6  1  0  0  0  0
  4  7  1  0  0  0  0
  7  8  1  0  0  0  0
  7  9  1  0  0  0  0
  7 10  1  0  0  0  0
 10 11  1  0  0  0  0
 10 12  1  0  0  0  0
 10 13  1  0  0  0  0
 13 14  1  0  0  0  0
 13 15  1  0  0  0  0
 15 16  1  0  0  0  0
 15 17  1  0  0  0  0
  1 18  1  0  0  0  0
 15 18  1  0  0  0  0
 18 19  1  0  0  0  0
 18 20  1  0  0  0  0
 13 21  1  0  0  0  0
 21 22  1  0  0  0  0
M  END
> <VConfSearch Rank>
263

> <Conf_Id>
99

> <Delta U+W>
-3.852

> <U+W>
2.572

> <U>
3.922

> <W>
-1.350

> <W(PB)>
-3.345

> <W(SA)>
1.995

> <Valence>
12.571

> <Coulomb>
-10.581

> <VdW>
1.932

> <VdW6>
-10.483

> <VdW12>
12.415

> <Bond>
0.268

> <Angle>
3.728

> <Pdih>
8.575

> <Idih>
0.000

> <Tether>
0.000

$$$$
VeraChem MOL file


 22 22  0  0  0  0  0  0  0  0999 V2000     
   20.9059   20.8410   21.9489 C   0  0  0  0  0  0  0  0  0  0  0  0
   20.9472   21.8353   21.4831 H   0  0  0  0  0  0  0  0  0  0  0  0
   21.9453   20.4864   21.9518 H   0  0  0  0  0  0  0  0  0  0  0  0
   20.0295   19.9260   21.0441 C   0  0  0  0  0  0  0  0  0  0  0  0
   19.6916   20.5243   20.1867 H   0  0  0  0  0  0  0  0  0  0  0  0
   20.6429   19.1266   20.6074 H   0  0  0  0  0  0  0  0  0  0  0  0
   18.7747   19.3102   21.7141 C   0  0  0  0  0  0  0  0  0  0  0  0
   18.1513   18.8569   20.9313 H   0  0  0  0  0  0  0  0  0  0  0  0
   18.1507   20.1081   22.1356 H   0  0  0  0  0  0  0  0  0  0  0  0
   19.0421   18.2268   22.7955 C   0  0  0  0  0  0  0  0  0  0  0  0
   18.1596   18.1655   23.4451 H   0  0  0  0  0  0  0  0  0  0  0  0
   19.1052   17.2493   22.2989 H   0  0  0  0  0  0  0  0  0  0  0  0
   20.2983   18.3783   23.6884 C   0  0  0  0  0  0  0  0  0  0  0  0
   20.1895   17.6635   24.5166 H   0  0  0  0  0  0  0  0  0  0  0  0
   20.5231   19.7724   24.3239 C   0  0  0  0  0  0  0  0  0  0  0  0
   19.8158   19.8937   25.1544 H   0  0  0  0  0  0  0  0  0  0  0  0
   21.5181   19.7675   24.7888 H   0  0  0  0  0  0  0  0  0  0  0  0
   20.4156   21.0232   23.4080 C   0  0  0  0  0  0  0  0  0  0  0  0
   19.3834   21.3947   23.4082 H   0  0  0  0  0  0  0  0  0  0  0  0
   20.9994   21.8301   23.8715 H   0  0  0  0  0  0  0  0  0  0  0  0
   21.4521   17.9975   22.9555 O   0  0  0  0  0  0  0  0  0  0  0  0
   21.5043   18.6587   22.2365 H   0  0  0  0  0  0  0  0  0  0  0  0
  1  2  1  0  0  0  0
  1  3  1  0  0  0  0
  1  4  1  0  0  0  0
  4  5  1  0  0  0  0
  4  6  1  0  0  0  0
  4  7  1  0  0  0  0
  7  8  1  0  0  0  0
  7  9  1  0  0  0  0
  7 10  1  0  0  0  0
 10 11  1  0  0  0  0
 10 12  1  0  0  0  0
 10 13  1  0  0  0  0
 13 14  1  0  0  0  0
 13 15  1  0  0  0  0
 15 16  1  0  0  0  0
 15 17  1  0  0  0  0
  1 18  1  0  0  0  0
 15 18  1  0  0  0  0
 18 19  1  0  0  0  0
 18 20  1  0  0  0  0
 13 21  1  0  0  0  0
 21 22  1  0  0  0  0
M  END
> <VConfSearch Rank>
264

> <Conf_Id>
98

> <Delta U+W>
0.930

> <U+W>
7.353

> <U>
8.455

> <W>
-1.102

> <W(PB)>
-3.101

> <W(SA)>
2.000

> <Valence>
15.601

> <Coulomb>
-10.573

> <VdW>
3.427

> <VdW6>
-11.360

> <VdW12>
14.787

> <Bond>
0.471

> <Angle>
5.445

> <Pdih>
9.685

> <Idih>
0.000

> <Tether>
0.000

$$$$
VeraChem MOL file


 22 22  0  0  0  0  0  0  0  0999 V2000     
   20.7576   18.8452   21.2660 C   0  0  0  0  0  0  0  0  0  0  0  0
   20.1760   19.5572   20.6664 H   0  0  0  0  0  0  0  0  0  0  0  0
   21.3809   18.3043   20.5410 H   0  0  0  0  0  0  0  0  0  0  0  0
   19.8031   17.8325   21.9483 C   0  0  0  0  0  0  0  0  0  0  0  0
   19.2449   17.3177   21.1543 H   0  0  0  0  0  0  0  0  0  0  0  0
   20.3921   17.0533   22.4509 H   0  0  0  0  0  0  0  0  0  0  0  0
   18.7775   18.4257   22.9537 C   0  0  0  0  0  0  0  0  0  0  0  0
   19.1038   18.2302   23.9835 H   0  0  0  0  0  0  0  0  0  0  0  0
   17.8341   17.8733   22.8465 H   0  0  0  0  0  0  0  0  0  0  0  0
   18.4890   19.9405   22.7812 C   0  0  0  0  0  0  0  0  0  0  0  0
   18.2253   20.1398   21.7351 H   0  0  0  0  0  0  0  0  0  0  0  0
   17.5832   20.1862   23.3518 H   0  0  0  0  0  0  0  0  0  0  0  0
   19.6332   20.9042   23.2126 C   0  0  0  0  0  0  0  0  0  0  0  0
   19.7557   21.6596   22.4230 H   0  0  0  0  0  0  0  0  0  0  0  0
   21.0120   20.2459   23.4694 C   0  0  0  0  0  0  0  0  0  0  0  0
   21.6948   21.0003   23.8814 H   0  0  0  0  0  0  0  0  0  0  0  0
   20.9180   19.4869   24.2553 H   0  0  0  0  0  0  0  0  0  0  0  0
   21.6911   19.6199   22.2257 C   0  0  0  0  0  0  0  0  0  0  0  0
   22.1858   20.4158   21.6525 H   0  0  0  0  0  0  0  0  0  0  0  0
   22.4930   18.9510   22.5665 H   0  0  0  0  0  0  0  0  0  0  0  0
   19.2425   21.5581   24.4146 O   0  0  0  0  0  0  0  0  0  0  0  0
   19.9520   22.1982   24.6316 H   0  0  0  0  0  0  0  0  0  0  0  0
  1  2  1  0  0  0  0
  1  3  1  0  0  0  0
  1  4  1  0  0  0  0
  4  5  1  0  0  0  0
  4  6  1  0  0  0  0
  4  7  1  0  0  0  0
  7  8  1  0  0  0  0
  7  9  1  0  0  0  0
  7 10  1  0  0  0  0
 10 11  1  0  0  0  0
 10 12  1  0  0  0  0
 10 13  1  0  0  0  0
 13 14  1  0  0  0  0
 13 15  1  0  0  0  0
 15 16  1  0  0  0  0
 15 17  1  0  0  0  0
  1 18  1  0  0  0  0
 15 18  1  0  0  0  0
 18 19  1  0  0  0  0
 18 20  1  0  0  0  0
 13 21  1  0  0  0  0
 21 22  1  0  0  0  0
M  END
> <VConfSearch Rank>
265

> <Conf_Id>
141

> <Delta U+W>
0.000

> <U+W>
6.423

> <U>
8.781

> <W>
-2.358

> <W(PB)>
-4.373

> <W(SA)>
2.015

> <Valence>
13.328

> <Coulomb>
-8.387

> <VdW>
3.840

> <VdW6>
-9.744

> <VdW12>
13.584

> <Bond>
0.436

> <Angle>
3.478

> <Pdih>
9.415

> <Idih>
0.000

> <Tether>
0.000

$$$$
VeraChem MOL file


 22 22  0  0  0  0  0  0  0  0999 V2000     
   18.4816   20.3634   22.1755 C   0  0  0  0  0  0  0  0  0  0  0  0
   18.1344   19.3852   21.8160 H   0  0  0  0  0  0  0  0  0  0  0  0
   17.6432   21.0572   22.0254 H   0  0  0  0  0  0  0  0  0  0  0  0
   19.6715   20.8743   21.3276 C   0  0  0  0  0  0  0  0  0  0  0  0
   19.3056   21.1144   20.3200 H   0  0  0  0  0  0  0  0  0  0  0  0
   20.0365   21.8221   21.7463 H   0  0  0  0  0  0  0  0  0  0  0  0
   20.8538   19.8877   21.1888 C   0  0  0  0  0  0  0  0  0  0  0  0
   21.6541   20.3892   20.6276 H   0  0  0  0  0  0  0  0  0  0  0  0
   20.5452   19.0330   20.5713 H   0  0  0  0  0  0  0  0  0  0  0  0
   21.4367   19.3728   22.5275 C   0  0  0  0  0  0  0  0  0  0  0  0
   22.3927   18.8805   22.3057 H   0  0  0  0  0  0  0  0  0  0  0  0
   21.6727   20.2115   23.1952 H   0  0  0  0  0  0  0  0  0  0  0  0
   20.5049   18.3634   23.2349 C   0  0  0  0  0  0  0  0  0  0  0  0
   19.9679   17.7921   22.4642 H   0  0  0  0  0  0  0  0  0  0  0  0
   19.4616   19.0048   24.1781 C   0  0  0  0  0  0  0  0  0  0  0  0
   18.6771   18.2591   24.3603 H   0  0  0  0  0  0  0  0  0  0  0  0
   19.9252   19.1984   25.1547 H   0  0  0  0  0  0  0  0  0  0  0  0
   18.7974   20.3161   23.6888 C   0  0  0  0  0  0  0  0  0  0  0  0
   17.8647   20.4549   24.2524 H   0  0  0  0  0  0  0  0  0  0  0  0
   19.4324   21.1716   23.9562 H   0  0  0  0  0  0  0  0  0  0  0  0
   21.2988   17.4658   24.0012 O   0  0  0  0  0  0  0  0  0  0  0  0
   21.9010   17.0149   23.3730 H   0  0  0  0  0  0  0  0  0  0  0  0
  1  2  1  0  0  0  0
  1  3  1  0  0  0  0
  1  4  1  0  0  0  0
  4  5  1  0  0  0  0
  4  6  1  0  0  0  0
  4  7  1  0  0  0  0
  7  8  1  0  0  0  0
  7  9  1  0  0  0  0
  7 10  1  0  0  0  0
 10 11  1  0  0  0  0
 10 12  1  0  0  0  0
 10 13  1  0  0  0  0
 13 14  1  0  0  0  0
 13 15  1  0  0  0  0
 15 16  1  0  0  0  0
 15 17  1  0  0  0  0
  1 18  1  0  0  0  0
 15 18  1  0  0  0  0
 18 19  1  0  0  0  0
 18 20  1  0  0  0  0
 13 21  1  0  0  0  0
 21 22  1  0  0  0  0
M  END
> <VConfSearch Rank>
266

> <Conf_Id>
144

> <Delta U+W>
-3.291

> <U+W>
3.132

> <U>
5.411

> <W>
-2.279

> <W(PB)>
-4.300

> <W(SA)>
2.021

> <Valence>
11.909

> <Coulomb>
-8.733

> <VdW>
2.236

> <VdW6>
-8.936

> <VdW12>
11.172

> <Bond>
0.223

> <Angle>
2.457

> <Pdih>
9.228

> <Idih>
0.000

> <Tether>
0.000

$$$$
VeraChem MOL file


 22 22  0  0  0  0  0  0  0  0999 V2000     
   21.3004   18.6227   23.1885 C   0  0  0  0  0  0  0  0  0  0  0  0
   22.3092   18.2189   23.3504 H   0  0  0  0  0  0  0  0  0  0  0  0
   20.6282   18.0214   23.8156 H   0  0  0  0  0  0  0  0  0  0  0  0
   20.9531   18.4557   21.6907 C   0  0  0  0  0  0  0  0  0  0  0  0
   21.3942   19.2833   21.1186 H   0  0  0  0  0  0  0  0  0  0  0  0
   21.4396   17.5463   21.3123 H   0  0  0  0  0  0  0  0  0  0  0  0
   19.4412   18.3539   21.3749 C   0  0  0  0  0  0  0  0  0  0  0  0
   19.1149   17.3150   21.5201 H   0  0  0  0  0  0  0  0  0  0  0  0
   19.2999   18.5641   20.3058 H   0  0  0  0  0  0  0  0  0  0  0  0
   18.5045   19.2728   22.1973 C   0  0  0  0  0  0  0  0  0  0  0  0
   17.5491   19.3455   21.6602 H   0  0  0  0  0  0  0  0  0  0  0  0
   18.2720   18.7872   23.1538 H   0  0  0  0  0  0  0  0  0  0  0  0
   19.0546   20.6917   22.4651 C   0  0  0  0  0  0  0  0  0  0  0  0
   19.6520   21.0237   21.6041 H   0  0  0  0  0  0  0  0  0  0  0  0
   19.9120   20.7622   23.7492 C   0  0  0  0  0  0  0  0  0  0  0  0
   20.0558   21.8171   24.0186 H   0  0  0  0  0  0  0  0  0  0  0  0
   19.3606   20.3087   24.5832 H   0  0  0  0  0  0  0  0  0  0  0  0
   21.3071   20.1015   23.6447 C   0  0  0  0  0  0  0  0  0  0  0  0
   21.9385   20.6901   22.9651 H   0  0  0  0  0  0  0  0  0  0  0  0
   21.7900   20.1621   24.6295 H   0  0  0  0  0  0  0  0  0  0  0  0
   17.9528   21.5749   22.6272 O   0  0  0  0  0  0  0  0  0  0  0  0
   17.4464   21.2467   23.3986 H   0  0  0  0  0  0  0  0  0  0  0  0
  1  2  1  0  0  0  0
  1  3  1  0  0  0  0
  1  4  1  0  0  0  0
  4  5  1  0  0  0  0
  4  6  1  0  0  0  0
  4  7  1  0  0  0  0
  7  8  1  0  0  0  0
  7  9  1  0  0  0  0
  7 10  1  0  0  0  0
 10 11  1  0  0  0  0
 10 12  1  0  0  0  0
 10 13  1  0  0  0  0
 13 14  1  0  0  0  0
 13 15  1  0  0  0  0
 15 16  1  0  0  0  0
 15 17  1  0  0  0  0
  1 18  1  0  0  0  0
 15 18  1  0  0  0  0
 18 19  1  0  0  0  0
 18 20  1  0  0  0  0
 13 21  1  0  0  0  0
 21 22  1  0  0  0  0
M  END
> <VConfSearch Rank>
267

> <Conf_Id>
76

> <Delta U+W>
-3.175

> <U+W>
3.248

> <U>
5.336

> <W>
-2.088

> <W(PB)>
-4.098

> <W(SA)>
2.010

> <Valence>
12.390

> <Coulomb>
-9.270

> <VdW>
2.216

> <VdW6>
-8.967

> <VdW12>
11.183

> <Bond>
0.218

> <Angle>
2.426

> <Pdih>
9.745

> <Idih>
0.000

> <Tether>
0.000

$$$$
VeraChem MOL file


 22 22  0  0  0  0  0  0  0  0999 V2000     
   21.0282   19.4812   21.0781 C   0  0  0  0  0  0  0  0  0  0  0  0
   20.9873   20.1969   20.2457 H   0  0  0  0  0  0  0  0  0  0  0  0
   21.8079   18.7555   20.8093 H   0  0  0  0  0  0  0  0  0  0  0  0
   19.6669   18.7494   21.1546 C   0  0  0  0  0  0  0  0  0  0  0  0
   18.8592   19.4504   20.9041 H   0  0  0  0  0  0  0  0  0  0  0  0
   19.6476   17.9852   20.3656 H   0  0  0  0  0  0  0  0  0  0  0  0
   19.3612   18.0765   22.5130 C   0  0  0  0  0  0  0  0  0  0  0  0
   20.2707   17.6436   22.9514 H   0  0  0  0  0  0  0  0  0  0  0  0
   18.6802   17.2342   22.3307 H   0  0  0  0  0  0  0  0  0  0  0  0
   18.6687   19.0349   23.5150 C   0  0  0  0  0  0  0  0  0  0  0  0
   17.8065   19.5063   23.0262 H   0  0  0  0  0  0  0  0  0  0  0  0
   18.2518   18.4396   24.3380 H   0  0  0  0  0  0  0  0  0  0  0  0
   19.5580   20.1397   24.1293 C   0  0  0  0  0  0  0  0  0  0  0  0
   18.8859   20.8284   24.6613 H   0  0  0  0  0  0  0  0  0  0  0  0
   20.3602   20.9842   23.1076 C   0  0  0  0  0  0  0  0  0  0  0  0
   19.6739   21.4450   22.3854 H   0  0  0  0  0  0  0  0  0  0  0  0
   20.8179   21.8186   23.6546 H   0  0  0  0  0  0  0  0  0  0  0  0
   21.4834   20.2206   22.3589 C   0  0  0  0  0  0  0  0  0  0  0  0
   22.2679   20.9350   22.0749 H   0  0  0  0  0  0  0  0  0  0  0  0
   21.9711   19.5080   23.0369 H   0  0  0  0  0  0  0  0  0  0  0  0
   20.4406   19.5565   25.0827 O   0  0  0  0  0  0  0  0  0  0  0  0
   21.0172   20.2781   25.4068 H   0  0  0  0  0  0  0  0  0  0  0  0
  1  2  1  0  0  0  0
  1  3  1  0  0  0  0
  1  4  1  0  0  0  0
  4  5  1  0  0  0  0
  4  6  1  0  0  0  0
  4  7  1  0  0  0  0
  7  8  1  0  0  0  0
  7  9  1  0  0  0  0
  7 10  1  0  0  0  0
 10 11  1  0  0  0  0
 10 12  1  0  0  0  0
 10 13  1  0  0  0  0
 13 14  1  0  0  0  0
 13 15  1  0  0  0  0
 15 16  1  0  0  0  0
 15 17  1  0  0  0  0
  1 18  1  0  0  0  0
 15 18  1  0  0  0  0
 18 19  1  0  0  0  0
 18 20  1  0  0  0  0
 13 21  1  0  0  0  0
 21 22  1  0  0  0  0
M  END
> <VConfSearch Rank>
268

> <Conf_Id>
95

> <Delta U+W>
-2.289

> <U+W>
4.134

> <U>
6.373

> <W>
-2.240

> <W(PB)>
-4.254

> <W(SA)>
2.015

> <Valence>
12.093

> <Coulomb>
-8.058

> <VdW>
2.339

> <VdW6>
-9.683

> <VdW12>
12.022

> <Bond>
0.268

> <Angle>
3.005

> <Pdih>
8.820

> <Idih>
0.000

> <Tether>
0.000

$$$$
VeraChem MOL file


 22 22  0  0  0  0  0  0  0  0999 V2000     
   18.4919   20.5936   22.1495 C   0  0  0  0  0  0  0  0  0  0  0  0
   17.8534   20.4002   21.2768 H   0  0  0  0  0  0  0  0  0  0  0  0
   18.0323   21.4433   22.6725 H   0  0  0  0  0  0  0  0  0  0  0  0
   19.8912   21.0156   21.6413 C   0  0  0  0  0  0  0  0  0  0  0  0
   20.1354   20.4515   20.7310 H   0  0  0  0  0  0  0  0  0  0  0  0
   19.8356   22.0673   21.3286 H   0  0  0  0  0  0  0  0  0  0  0  0
   21.0367   20.8570   22.6681 C   0  0  0  0  0  0  0  0  0  0  0  0
   20.6955   21.1129   23.6805 H   0  0  0  0  0  0  0  0  0  0  0  0
   21.8210   21.5841   22.4179 H   0  0  0  0  0  0  0  0  0  0  0  0
   21.6746   19.4451   22.6383 C   0  0  0  0  0  0  0  0  0  0  0  0
   21.9252   19.1863   21.6014 H   0  0  0  0  0  0  0  0  0  0  0  0
   22.6347   19.4825   23.1690 H   0  0  0  0  0  0  0  0  0  0  0  0
   20.8282   18.3014   23.2427 C   0  0  0  0  0  0  0  0  0  0  0  0
   21.3369   17.3606   22.9871 H   0  0  0  0  0  0  0  0  0  0  0  0
   19.3807   18.1969   22.7003 C   0  0  0  0  0  0  0  0  0  0  0  0
   19.3971   18.0761   21.6096 H   0  0  0  0  0  0  0  0  0  0  0  0
   18.9515   17.2684   23.0984 H   0  0  0  0  0  0  0  0  0  0  0  0
   18.4430   19.3682   23.0932 C   0  0  0  0  0  0  0  0  0  0  0  0
   17.4086   18.9998   23.1143 H   0  0  0  0  0  0  0  0  0  0  0  0
   18.6572   19.6891   24.1211 H   0  0  0  0  0  0  0  0  0  0  0  0
   20.8115   18.4253   24.6616 O   0  0  0  0  0  0  0  0  0  0  0  0
   21.7441   18.5044   24.9482 H   0  0  0  0  0  0  0  0  0  0  0  0
  1  2  1  0  0  0  0
  1  3  1  0  0  0  0
  1  4  1  0  0  0  0
  4  5  1  0  0  0  0
  4  6  1  0  0  0  0
  4  7  1  0  0  0  0
  7  8  1  0  0  0  0
  7  9  1  0  0  0  0
  7 10  1  0  0  0  0
 10 11  1  0  0  0  0
 10 12  1  0  0  0  0
 10 13  1  0  0  0  0
 13 14  1  0  0  0  0
 13 15  1  0  0  0  0
 15 16  1  0  0  0  0
 15 17  1  0  0  0  0
  1 18  1  0  0  0  0
 15 18  1  0  0  0  0
 18 19  1  0  0  0  0
 18 20  1  0  0  0  0
 13 21  1  0  0  0  0
 21 22  1  0  0  0  0
M  END
> <VConfSearch Rank>
269

> <Conf_Id>
41

> <Delta U+W>
-2.114

> <U+W>
4.310

> <U>
6.598

> <W>
-2.289

> <W(PB)>
-4.294

> <W(SA)>
2.005

> <Valence>
12.082

> <Coulomb>
-7.801

> <VdW>
2.317

> <VdW6>
-9.658

> <VdW12>
11.975

> <Bond>
0.267

> <Angle>
3.051

> <Pdih>
8.764

> <Idih>
0.000

> <Tether>
0.000

$$$$
VeraChem MOL file


 22 22  0  0  0  0  0  0  0  0999 V2000     
   21.5111   18.6931   22.8904 C   0  0  0  0  0  0  0  0  0  0  0  0
   22.3262   18.0297   23.2097 H   0  0  0  0  0  0  0  0  0  0  0  0
   21.7254   18.9643   21.8474 H   0  0  0  0  0  0  0  0  0  0  0  0
   21.5360   19.9444   23.7965 C   0  0  0  0  0  0  0  0  0  0  0  0
   21.2586   19.6618   24.8211 H   0  0  0  0  0  0  0  0  0  0  0  0
   22.5685   20.3145   23.8552 H   0  0  0  0  0  0  0  0  0  0  0  0
   20.6334   21.1033   23.3194 C   0  0  0  0  0  0  0  0  0  0  0  0
   21.0411   21.5258   22.3914 H   0  0  0  0  0  0  0  0  0  0  0  0
   20.6971   21.9096   24.0624 H   0  0  0  0  0  0  0  0  0  0  0  0
   19.1372   20.7368   23.1236 C   0  0  0  0  0  0  0  0  0  0  0  0
   18.7492   20.2437   24.0240 H   0  0  0  0  0  0  0  0  0  0  0  0
   18.5746   21.6749   23.0339 H   0  0  0  0  0  0  0  0  0  0  0  0
   18.8053   19.8838   21.8721 C   0  0  0  0  0  0  0  0  0  0  0  0
   17.7235   19.9821   21.7014 H   0  0  0  0  0  0  0  0  0  0  0  0
   19.0858   18.3635   21.9954 C   0  0  0  0  0  0  0  0  0  0  0  0
   18.1504   17.8692   22.2881 H   0  0  0  0  0  0  0  0  0  0  0  0
   19.3250   17.9622   21.0019 H   0  0  0  0  0  0  0  0  0  0  0  0
   20.1832   17.9103   22.9901 C   0  0  0  0  0  0  0  0  0  0  0  0
   19.7987   17.9599   24.0177 H   0  0  0  0  0  0  0  0  0  0  0  0
   20.3873   16.8473   22.8032 H   0  0  0  0  0  0  0  0  0  0  0  0
   19.4716   20.4029   20.7243 O   0  0  0  0  0  0  0  0  0  0  0  0
   19.1946   19.8527   19.9637 H   0  0  0  0  0  0  0  0  0  0  0  0
  1  2  1  0  0  0  0
  1  3  1  0  0  0  0
  1  4  1  0  0  0  0
  4  5  1  0  0  0  0
  4  6  1  0  0  0  0
  4  7  1  0  0  0  0
  7  8  1  0  0  0  0
  7  9  1  0  0  0  0
  7 10  1  0  0  0  0
 10 11  1  0  0  0  0
 10 12  1  0  0  0  0
 10 13  1  0  0  0  0
 13 14  1  0  0  0  0
 13 15  1  0  0  0  0
 15 16  1  0  0  0  0
 15 17  1  0  0  0  0
  1 18  1  0  0  0  0
 15 18  1  0  0  0  0
 18 19  1  0  0  0  0
 18 20  1  0  0  0  0
 13 21  1  0  0  0  0
 21 22  1  0  0  0  0
M  END
> <VConfSearch Rank>
270

> <Conf_Id>
104

> <Delta U+W>
-1.172

> <U+W>
5.252

> <U>
7.482

> <W>
-2.230

> <W(PB)>
-4.220

> <W(SA)>
1.990

> <Valence>
12.309

> <Coulomb>
-7.084

> <VdW>
2.258

> <VdW6>
-9.770

> <VdW12>
12.028

> <Bond>
0.284

> <Angle>
3.491

> <Pdih>
8.535

> <Idih>
0.000

> <Tether>
0.000

$$$$
VeraChem MOL file


 22 22  0  0  0  0  0  0  0  0999 V2000     
   18.9557   20.7342   22.2645 C   0  0  0  0  0  0  0  0  0  0  0  0
   18.5703   20.8143   23.2900 H   0  0  0  0  0  0  0  0  0  0  0  0
   18.3533   21.4263   21.6604 H   0  0  0  0  0  0  0  0  0  0  0  0
   18.7427   19.3093   21.7043 C   0  0  0  0  0  0  0  0  0  0  0  0
   17.6981   19.2140   21.3773 H   0  0  0  0  0  0  0  0  0  0  0  0
   19.3386   19.1849   20.7907 H   0  0  0  0  0  0  0  0  0  0  0  0
   19.0363   18.1496   22.6895 C   0  0  0  0  0  0  0  0  0  0  0  0
   19.2929   17.2544   22.1063 H   0  0  0  0  0  0  0  0  0  0  0  0
   18.1057   17.8970   23.2160 H   0  0  0  0  0  0  0  0  0  0  0  0
   20.1315   18.3887   23.7640 C   0  0  0  0  0  0  0  0  0  0  0  0
   19.7091   18.9907   24.5790 H   0  0  0  0  0  0  0  0  0  0  0  0
   20.3769   17.4204   24.2190 H   0  0  0  0  0  0  0  0  0  0  0  0
   21.4491   19.0459   23.2928 C   0  0  0  0  0  0  0  0  0  0  0  0
   22.2247   18.7871   24.0279 H   0  0  0  0  0  0  0  0  0  0  0  0
   21.3692   20.5887   23.2520 C   0  0  0  0  0  0  0  0  0  0  0  0
   21.0701   20.9516   24.2439 H   0  0  0  0  0  0  0  0  0  0  0  0
   22.3819   20.9794   23.0874 H   0  0  0  0  0  0  0  0  0  0  0  0
   20.4278   21.2044   22.1874 C   0  0  0  0  0  0  0  0  0  0  0  0
   20.4481   22.2957   22.3115 H   0  0  0  0  0  0  0  0  0  0  0  0
   20.8275   21.0144   21.1822 H   0  0  0  0  0  0  0  0  0  0  0  0
   21.8311   18.5419   22.0223 O   0  0  0  0  0  0  0  0  0  0  0  0
   21.0631   18.7347   21.4484 H   0  0  0  0  0  0  0  0  0  0  0  0
  1  2  1  0  0  0  0
  1  3  1  0  0  0  0
  1  4  1  0  0  0  0
  4  5  1  0  0  0  0
  4  6  1  0  0  0  0
  4  7  1  0  0  0  0
  7  8  1  0  0  0  0
  7  9  1  0  0  0  0
  7 10  1  0  0  0  0
 10 11  1  0  0  0  0
 10 12  1  0  0  0  0
 10 13  1  0  0  0  0
 13 14  1  0  0  0  0
 13 15  1  0  0  0  0
 15 16  1  0  0  0  0
 15 17  1  0  0  0  0
  1 18  1  0  0  0  0
 15 18  1  0  0  0  0
 18 19  1  0  0  0  0
 18 20  1  0  0  0  0
 13 21  1  0  0  0  0
 21 22  1  0  0  0  0
M  END
> <VConfSearch Rank>
271

> <Conf_Id>
99

> <Delta U+W>
-3.852

> <U+W>
2.572

> <U>
3.922

> <W>
-1.350

> <W(PB)>
-3.345

> <W(SA)>
1.995

> <Valence>
12.571

> <Coulomb>
-10.581

> <VdW>
1.932

> <VdW6>
-10.483

> <VdW12>
12.415

> <Bond>
0.268

> <Angle>
3.728

> <Pdih>
8.575

> <Idih>
0.000

> <Tether>
0.000

$$$$
VeraChem MOL file


 22 22  0  0  0  0  0  0  0  0999 V2000     
   20.6576   19.7239   24.2335 C   0  0  0  0  0  0  0  0  0  0  0  0
   20.6418   20.1651   25.2397 H   0  0  0  0  0  0  0  0  0  0  0  0
   21.4579   18.9725   24.2665 H   0  0  0  0  0  0  0  0  0  0  0  0
   21.0216   20.8513   23.2235 C   0  0  0  0  0  0  0  0  0  0  0  0
   21.1635   21.7805   23.7925 H   0  0  0  0  0  0  0  0  0  0  0  0
   21.9988   20.6479   22.7653 H   0  0  0  0  0  0  0  0  0  0  0  0
   19.9765   21.1322   22.1137 C   0  0  0  0  0  0  0  0  0  0  0  0
   20.2583   22.0611   21.5996 H   0  0  0  0  0  0  0  0  0  0  0  0
   19.0032   21.3535   22.5691 H   0  0  0  0  0  0  0  0  0  0  0  0
   19.8118   20.0240   21.0368 C   0  0  0  0  0  0  0  0  0  0  0  0
   18.8243   20.1413   20.5723 H   0  0  0  0  0  0  0  0  0  0  0  0
   20.5350   20.2124   20.2321 H   0  0  0  0  0  0  0  0  0  0  0  0
   19.9753   18.5477   21.4747 C   0  0  0  0  0  0  0  0  0  0  0  0
   19.6043   17.9261   20.6471 H   0  0  0  0  0  0  0  0  0  0  0  0
   19.1972   18.1190   22.7431 C   0  0  0  0  0  0  0  0  0  0  0  0
   18.1371   18.0109   22.4803 H   0  0  0  0  0  0  0  0  0  0  0  0
   19.5339   17.1089   23.0121 H   0  0  0  0  0  0  0  0  0  0  0  0
   19.2951   19.0211   24.0047 C   0  0  0  0  0  0  0  0  0  0  0  0
   18.4913   19.7676   23.9894 H   0  0  0  0  0  0  0  0  0  0  0  0
   19.0755   18.3971   24.8817 H   0  0  0  0  0  0  0  0  0  0  0  0
   21.3528   18.2491   21.6376 O   0  0  0  0  0  0  0  0  0  0  0  0
   21.6330   18.8226   22.3789 H   0  0  0  0  0  0  0  0  0  0  0  0
  1  2  1  0  0  0  0
  1  3  1  0  0  0  0
  1  4  1  0  0  0  0
  4  5  1  0  0  0  0
  4  6  1  0  0  0  0
  4  7  1  0  0  0  0
  7  8  1  0  0  0  0
  7  9  1  0  0  0  0
  7 10  1  0  0  0  0
 10 11  1  0  0  0  0
 10 12  1  0  0  0  0
 10 13  1  0  0  0  0
 13 14  1  0  0  0  0
 13 15  1  0  0  0  0
 15 16  1  0  0  0  0
 15 17  1  0  0  0  0
  1 18  1  0  0  0  0
 15 18  1  0  0  0  0
 18 19  1  0  0  0  0
 18 20  1  0  0  0  0
 13 21  1  0  0  0  0
 21 22  1  0  0  0  0
M  END
> <VConfSearch Rank>
272

> <Conf_Id>
98

> <Delta U+W>
0.930

> <U+W>
7.353

> <U>
8.455

> <W>
-1.102

> <W(PB)>
-3.101

> <W(SA)>
2.000

> <Valence>
15.601

> <Coulomb>
-10.573

> <VdW>
3.427

> <VdW6>
-11.360

> <VdW12>
14.787

> <Bond>
0.471

> <Angle>
5.445

> <Pdih>
9.685

> <Idih>
0.000

> <Tether>
0.000

$$$$
VeraChem MOL file


 22 22  0  0  0  0  0  0  0  0999 V2000     
   19.1254   18.2271   21.9813 C   0  0  0  0  0  0  0  0  0  0  0  0
   18.9643   18.8599   21.0990 H   0  0  0  0  0  0  0  0  0  0  0  0
   18.6568   17.2654   21.7319 H   0  0  0  0  0  0  0  0  0  0  0  0
   18.3881   18.8332   23.2025 C   0  0  0  0  0  0  0  0  0  0  0  0
   17.3211   18.8929   22.9481 H   0  0  0  0  0  0  0  0  0  0  0  0
   18.4530   18.1401   24.0523 H   0  0  0  0  0  0  0  0  0  0  0  0
   18.8566   20.2434   23.6568 C   0  0  0  0  0  0  0  0  0  0  0  0
   19.4801   20.1612   24.5565 H   0  0  0  0  0  0  0  0  0  0  0  0
   17.9724   20.8114   23.9766 H   0  0  0  0  0  0  0  0  0  0  0  0
   19.6112   21.0644   22.5778 C   0  0  0  0  0  0  0  0  0  0  0  0
   19.0113   21.0893   21.6596 H   0  0  0  0  0  0  0  0  0  0  0  0
   19.6595   22.1099   22.9111 H   0  0  0  0  0  0  0  0  0  0  0  0
   21.0498   20.5776   22.2355 C   0  0  0  0  0  0  0  0  0  0  0  0
   21.1509   20.5625   21.1407 H   0  0  0  0  0  0  0  0  0  0  0  0
   21.4375   19.1783   22.7758 C   0  0  0  0  0  0  0  0  0  0  0  0
   22.5028   19.0030   22.5768 H   0  0  0  0  0  0  0  0  0  0  0  0
   21.3458   19.1661   23.8685 H   0  0  0  0  0  0  0  0  0  0  0  0
   20.6415   17.9915   22.1777 C   0  0  0  0  0  0  0  0  0  0  0  0
   21.0753   17.7276   21.2036 H   0  0  0  0  0  0  0  0  0  0  0  0
   20.7894   17.1135   22.8212 H   0  0  0  0  0  0  0  0  0  0  0  0
   21.9807   21.5131   22.7680 O   0  0  0  0  0  0  0  0  0  0  0  0
   22.8717   21.2147   22.4899 H   0  0  0  0  0  0  0  0  0  0  0  0
  1  2  1  0  0  0  0
  1  3  1  0  0  0  0
  1  4  1  0  0  0  0
  4  5  1  0  0  0  0
  4  6  1  0  0  0  0
  4  7  1  0  0  0  0
  7  8  1  0  0  0  0
  7  9  1  0  0  0  0
  7 10  1  0  0  0  0
 10 11  1  0  0  0  0
 10 12  1  0  0  0  0
 10 13  1  0  0  0  0
 13 14  1  0  0  0  0
 13 15  1  0  0  0  0
 15 16  1  0  0  0  0
 15 17  1  0  0  0  0
  1 18  1  0  0  0  0
 15 18  1  0  0  0  0
 18 19  1  0  0  0  0
 18 20  1  0  0  0  0
 13 21  1  0  0  0  0
 21 22  1  0  0  0  0
M  END
> <VConfSearch Rank>
273

> <Conf_Id>
141

> <Delta U+W>
0.000

> <U+W>
6.423

> <U>
8.781

> <W>
-2.358

> <W(PB)>
-4.373

> <W(SA)>
2.015

> <Valence>
13.328

> <Coulomb>
-8.387

> <VdW>
3.840

> <VdW6>
-9.744

> <VdW12>
13.584

> <Bond>
0.436

> <Angle>
3.478

> <Pdih>
9.415

> <Idih>
0.000

> <Tether>
0.000

$$$$
VeraChem MOL file


 22 22  0  0  0  0  0  0  0  0999 V2000     
   18.9590   21.0045   22.4054 C   0  0  0  0  0  0  0  0  0  0  0  0
   18.8817   21.1163   23.4954 H   0  0  0  0  0  0  0  0  0  0  0  0
   18.4043   21.8486   21.9734 H   0  0  0  0  0  0  0  0  0  0  0  0
   18.2724   19.7003   21.9327 C   0  0  0  0  0  0  0  0  0  0  0  0
   17.1884   19.8029   22.0786 H   0  0  0  0  0  0  0  0  0  0  0  0
   18.4180   19.5839   20.8500 H   0  0  0  0  0  0  0  0  0  0  0  0
   18.7361   18.4129   22.6522 C   0  0  0  0  0  0  0  0  0  0  0  0
   18.2297   17.5577   22.1841 H   0  0  0  0  0  0  0  0  0  0  0  0
   18.3895   18.4324   23.6945 H   0  0  0  0  0  0  0  0  0  0  0  0
   20.2633   18.1602   22.6213 C   0  0  0  0  0  0  0  0  0  0  0  0
   20.4355   17.1268   22.9500 H   0  0  0  0  0  0  0  0  0  0  0  0
   20.6453   18.2217   21.5941 H   0  0  0  0  0  0  0  0  0  0  0  0
   21.0453   19.1182   23.5478 C   0  0  0  0  0  0  0  0  0  0  0  0
   20.4130   19.3486   24.4173 H   0  0  0  0  0  0  0  0  0  0  0  0
   21.4647   20.4509   22.8865 C   0  0  0  0  0  0  0  0  0  0  0  0
   21.7094   21.1570   23.6904 H   0  0  0  0  0  0  0  0  0  0  0  0
   22.3961   20.3004   22.3245 H   0  0  0  0  0  0  0  0  0  0  0  0
   20.4305   21.1122   21.9414 C   0  0  0  0  0  0  0  0  0  0  0  0
   20.6951   22.1734   21.8380 H   0  0  0  0  0  0  0  0  0  0  0  0
   20.5278   20.6855   20.9339 H   0  0  0  0  0  0  0  0  0  0  0  0
   22.2229   18.4602   23.9988 O   0  0  0  0  0  0  0  0  0  0  0  0
   21.9312   17.6580   24.4804 H   0  0  0  0  0  0  0  0  0  0  0  0
  1  2  1  0  0  0  0
  1  3  1  0  0  0  0
  1  4  1  0  0  0  0
  4  5  1  0  0  0  0
  4  6  1  0  0  0  0
  4  7  1  0  0  0  0
  7  8  1  0  0  0  0
  7  9  1  0  0  0  0
  7 10  1  0  0  0  0
 10 11  1  0  0  0  0
 10 12  1  0  0  0  0
 10 13  1  0  0  0  0
 13 14  1  0  0  0  0
 13 15  1  0  0  0  0
 15 16  1  0  0  0  0
 15 17  1  0  0  0  0
  1 18  1  0  0  0  0
 15 18  1  0  0  0  0
 18 19  1  0  0  0  0
 18 20  1  0  0  0  0
 13 21  1  0  0  0  0
 21 22  1  0  0  0  0
M  END
> <VConfSearch Rank>
274

> <Conf_Id>
144

> <Delta U+W>
-3.291

> <U+W>
3.132

> <U>
5.411

> <W>
-2.279

> <W(PB)>
-4.300

> <W(SA)>
2.021

> <Valence>
11.909

> <Coulomb>
-8.733

> <VdW>
2.236

> <VdW6>
-8.936

> <VdW12>
11.172

> <Bond>
0.223

> <Angle>
2.457

> <Pdih>
9.228

> <Idih>
0.000

> <Tether>
0.000

$$$$
VeraChem MOL file


 22 22  0  0  0  0  0  0  0  0999 V2000     
   19.8631   18.5491   24.0638 C   0  0  0  0  0  0  0  0  0  0  0  0
   19.5235   17.9429   24.9147 H   0  0  0  0  0  0  0  0  0  0  0  0
   20.9609   18.5164   24.0863 H   0  0  0  0  0  0  0  0  0  0  0  0
   19.3504   19.9936   24.2707 C   0  0  0  0  0  0  0  0  0  0  0  0
   18.3094   20.0647   23.9273 H   0  0  0  0  0  0  0  0  0  0  0  0
   19.3188   20.2086   25.3476 H   0  0  0  0  0  0  0  0  0  0  0  0
   20.1984   21.0949   23.5896 C   0  0  0  0  0  0  0  0  0  0  0  0
   21.0444   21.3496   24.2425 H   0  0  0  0  0  0  0  0  0  0  0  0
   19.5876   22.0057   23.5241 H   0  0  0  0  0  0  0  0  0  0  0  0
   20.7573   20.7607   22.1845 C   0  0  0  0  0  0  0  0  0  0  0  0
   21.0338   21.7066   21.6995 H   0  0  0  0  0  0  0  0  0  0  0  0
   21.6930   20.1974   22.2935 H   0  0  0  0  0  0  0  0  0  0  0  0
   19.7916   19.9750   21.2693 C   0  0  0  0  0  0  0  0  0  0  0  0
   18.7574   20.2903   21.4681 H   0  0  0  0  0  0  0  0  0  0  0  0
   19.9121   18.4453   21.4549 C   0  0  0  0  0  0  0  0  0  0  0  0
   19.4024   17.9484   20.6186 H   0  0  0  0  0  0  0  0  0  0  0  0
   20.9671   18.1499   21.3857 H   0  0  0  0  0  0  0  0  0  0  0  0
   19.3166   17.8946   22.7723 C   0  0  0  0  0  0  0  0  0  0  0  0
   18.2228   17.9947   22.7473 H   0  0  0  0  0  0  0  0  0  0  0  0
   19.5172   16.8153   22.8147 H   0  0  0  0  0  0  0  0  0  0  0  0
   20.1119   20.2771   19.9178 O   0  0  0  0  0  0  0  0  0  0  0  0
   21.0364   19.9846   19.7806 H   0  0  0  0  0  0  0  0  0  0  0  0
  1  2  1  0  0  0  0
  1  3  1  0  0  0  0
  1  4  1  0  0  0  0
  4  5  1  0  0  0  0
  4  6  1  0  0  0  0
  4  7  1  0  0  0  0
  7  8  1  0  0  0  0
  7  9  1  0  0  0  0
  7 10  1  0  0  0  0
 10 11  1  0  0  0  0
 10 12  1  0  0  0  0
 10 13  1  0  0  0  0
 13 14  1  0  0  0  0
 13 15  1  0  0  0  0
 15 16  1  0  0  0  0
 15 17  1  0  0  0  0
  1 18  1  0  0  0  0
 15 18  1  0  0  0  0
 18 19  1  0  0  0  0
 18 20  1  0  0  0  0
 13 21  1  0  0  0  0
 21 22  1  0  0  0  0
M  END
> <VConfSearch Rank>
275

> <Conf_Id>
76

> <Delta U+W>
-3.175

> <U+W>
3.248

> <U>
5.336

> <W>
-2.088

> <W(PB)>
-4.098

> <W(SA)>
2.010

> <Valence>
12.390

> <Coulomb>
-9.270

> <VdW>
2.216

> <VdW6>
-8.967

> <VdW12>
11.183

> <Bond>
0.218

> <Angle>
2.426

> <Pdih>
9.745

> <Idih>
0.000

> <Tether>
0.000

$$$$
VeraChem MOL file


 22 22  0  0  0  0  0  0  0  0999 V2000     
   21.2656   18.4407   21.7727 C   0  0  0  0  0  0  0  0  0  0  0  0
   22.0203   18.7401   21.0327 H   0  0  0  0  0  0  0  0  0  0  0  0
   21.4114   17.3630   21.9279 H   0  0  0  0  0  0  0  0  0  0  0  0
   19.8651   18.6738   21.1572 C   0  0  0  0  0  0  0  0  0  0  0  0
   19.8830   19.5809   20.5381 H   0  0  0  0  0  0  0  0  0  0  0  0
   19.6580   17.8484   20.4625 H   0  0  0  0  0  0  0  0  0  0  0  0
   18.7090   18.7715   22.1797 C   0  0  0  0  0  0  0  0  0  0  0  0
   18.8603   18.0718   23.0129 H   0  0  0  0  0  0  0  0  0  0  0  0
   17.7838   18.4545   21.6798 H   0  0  0  0  0  0  0  0  0  0  0  0
   18.4917   20.2138   22.7037 C   0  0  0  0  0  0  0  0  0  0  0  0
   18.4158   20.9000   21.8505 H   0  0  0  0  0  0  0  0  0  0  0  0
   17.5171   20.2605   23.2070 H   0  0  0  0  0  0  0  0  0  0  0  0
   19.5595   20.7530   23.6825 C   0  0  0  0  0  0  0  0  0  0  0  0
   19.3602   21.8269   23.8090 H   0  0  0  0  0  0  0  0  0  0  0  0
   21.0254   20.6153   23.2001 C   0  0  0  0  0  0  0  0  0  0  0  0
   21.1476   21.1192   22.2326 H   0  0  0  0  0  0  0  0  0  0  0  0
   21.6592   21.1695   23.9044 H   0  0  0  0  0  0  0  0  0  0  0  0
   21.5561   19.1608   23.1111 C   0  0  0  0  0  0  0  0  0  0  0  0
   22.6444   19.1718   23.2586 H   0  0  0  0  0  0  0  0  0  0  0  0
   21.1566   18.5626   23.9406 H   0  0  0  0  0  0  0  0  0  0  0  0
   19.3991   20.1201   24.9481 O   0  0  0  0  0  0  0  0  0  0  0  0
   20.1231   20.4497   25.5186 H   0  0  0  0  0  0  0  0  0  0  0  0
  1  2  1  0  0  0  0
  1  3  1  0  0  0  0
  1  4  1  0  0  0  0
  4  5  1  0  0  0  0
  4  6  1  0  0  0  0
  4  7  1  0  0  0  0
  7  8  1  0  0  0  0
  7  9  1  0  0  0  0
  7 10  1  0  0  0  0
 10 11  1  0  0  0  0
 10 12  1  0  0  0  0
 10 13  1  0  0  0  0
 13 14  1  0  0  0  0
 13 15  1  0  0  0  0
 15 16  1  0  0  0  0
 15 17  1  0  0  0  0
  1 18  1  0  0  0  0
 15 18  1  0  0  0  0
 18 19  1  0  0  0  0
 18 20  1  0  0  0  0
 13 21  1  0  0  0  0
 21 22  1  0  0  0  0
M  END
> <VConfSearch Rank>
276

> <Conf_Id>
95

> <Delta U+W>
-2.289

> <U+W>
4.134

> <U>
6.373

> <W>
-2.240

> <W(PB)>
-4.254

> <W(SA)>
2.015

> <Valence>
12.093

> <Coulomb>
-8.058

> <VdW>
2.339

> <VdW6>
-9.683

> <VdW12>
12.022

> <Bond>
0.268

> <Angle>
3.005

> <Pdih>
8.820

> <Idih>
0.000

> <Tether>
0.000

$$$$
VeraChem MOL file


 22 22  0  0  0  0  0  0  0  0999 V2000     
   20.3530   21.5032   22.9170 C   0  0  0  0  0  0  0  0  0  0  0  0
   19.6103   22.2958   23.0814 H   0  0  0  0  0  0  0  0  0  0  0  0
   21.3311   22.0029   22.9362 H   0  0  0  0  0  0  0  0  0  0  0  0
   20.1219   20.9084   21.5073 C   0  0  0  0  0  0  0  0  0  0  0  0
   19.0453   20.8877   21.2909 H   0  0  0  0  0  0  0  0  0  0  0  0
   20.5556   21.5999   20.7721 H   0  0  0  0  0  0  0  0  0  0  0  0
   20.7191   19.4994   21.2846 C   0  0  0  0  0  0  0  0  0  0  0  0
   21.6855   19.3965   21.7967 H   0  0  0  0  0  0  0  0  0  0  0  0
   20.9283   19.3841   20.2125 H   0  0  0  0  0  0  0  0  0  0  0  0
   19.7476   18.3661   21.7008 C   0  0  0  0  0  0  0  0  0  0  0  0
   18.7676   18.5463   21.2403 H   0  0  0  0  0  0  0  0  0  0  0  0
   20.1034   17.4222   21.2678 H   0  0  0  0  0  0  0  0  0  0  0  0
   19.5499   18.1610   23.2202 C   0  0  0  0  0  0  0  0  0  0  0  0
   18.7152   17.4553   23.3394 H   0  0  0  0  0  0  0  0  0  0  0  0
   19.1807   19.4393   24.0139 C   0  0  0  0  0  0  0  0  0  0  0  0
   18.2656   19.8843   23.6029 H   0  0  0  0  0  0  0  0  0  0  0  0
   18.9289   19.1254   25.0352 H   0  0  0  0  0  0  0  0  0  0  0  0
   20.3011   20.5083   24.1009 C   0  0  0  0  0  0  0  0  0  0  0  0
   20.1639   21.0884   25.0233 H   0  0  0  0  0  0  0  0  0  0  0  0
   21.2774   20.0177   24.2098 H   0  0  0  0  0  0  0  0  0  0  0  0
   20.7189   17.5628   23.7720 O   0  0  0  0  0  0  0  0  0  0  0  0
   20.9160   16.7745   23.2262 H   0  0  0  0  0  0  0  0  0  0  0  0
  1  2  1  0  0  0  0
  1  3  1  0  0  0  0
  1  4  1  0  0  0  0
  4  5  1  0  0  0  0
  4  6  1  0  0  0  0
  4  7  1  0  0  0  0
  7  8  1  0  0  0  0
  7  9  1  0  0  0  0
  7 10  1  0  0  0  0
 10 11  1  0  0  0  0
 10 12  1  0  0  0  0
 10 13  1  0  0  0  0
 13 14  1  0  0  0  0
 13 15  1  0  0  0  0
 15 16  1  0  0  0  0
 15 17  1  0  0  0  0
  1 18  1  0  0  0  0
 15 18  1  0  0  0  0
 18 19  1  0  0  0  0
 18 20  1  0  0  0  0
 13 21  1  0  0  0  0
 21 22  1  0  0  0  0
M  END
> <VConfSearch Rank>
277

> <Conf_Id>
41

> <Delta U+W>
-2.114

> <U+W>
4.310

> <U>
6.598

> <W>
-2.289

> <W(PB)>
-4.294

> <W(SA)>
2.005

> <Valence>
12.082

> <Coulomb>
-7.801

> <VdW>
2.317

> <VdW6>
-9.658

> <VdW12>
11.975

> <Bond>
0.267

> <Angle>
3.051

> <Pdih>
8.764

> <Idih>
0.000

> <Tether>
0.000

$$$$
VeraChem MOL file


 22 22  0  0  0  0  0  0  0  0999 V2000     
   20.9723   20.8402   22.1723 C   0  0  0  0  0  0  0  0  0  0  0  0
   21.7484   21.5856   21.9522 H   0  0  0  0  0  0  0  0  0  0  0  0
   20.1991   20.9637   21.4016 H   0  0  0  0  0  0  0  0  0  0  0  0
   20.4011   21.1506   23.5741 C   0  0  0  0  0  0  0  0  0  0  0  0
   21.1707   20.9613   24.3347 H   0  0  0  0  0  0  0  0  0  0  0  0
   20.1782   22.2247   23.6320 H   0  0  0  0  0  0  0  0  0  0  0  0
   19.1179   20.3704   23.9341 C   0  0  0  0  0  0  0  0  0  0  0  0
   18.2891   20.7192   23.3037 H   0  0  0  0  0  0  0  0  0  0  0  0
   18.8374   20.6364   24.9620 H   0  0  0  0  0  0  0  0  0  0  0  0
   19.2385   18.8248   23.8453 C   0  0  0  0  0  0  0  0  0  0  0  0
   20.1132   18.4821   24.4126 H   0  0  0  0  0  0  0  0  0  0  0  0
   18.3674   18.3939   24.3552 H   0  0  0  0  0  0  0  0  0  0  0  0
   19.2720   18.2275   22.4149 C   0  0  0  0  0  0  0  0  0  0  0  0
   19.0371   17.1578   22.5143 H   0  0  0  0  0  0  0  0  0  0  0  0
   20.6366   18.3028   21.6818 C   0  0  0  0  0  0  0  0  0  0  0  0
   21.1573   17.3489   21.8366 H   0  0  0  0  0  0  0  0  0  0  0  0
   20.4587   18.3616   20.6000 H   0  0  0  0  0  0  0  0  0  0  0  0
   21.6114   19.4366   22.0858 C   0  0  0  0  0  0  0  0  0  0  0  0
   22.0962   19.1894   23.0398 H   0  0  0  0  0  0  0  0  0  0  0  0
   22.4203   19.4642   21.3431 H   0  0  0  0  0  0  0  0  0  0  0  0
   18.2590   18.8176   21.6046 O   0  0  0  0  0  0  0  0  0  0  0  0
   18.3020   18.3761   20.7322 H   0  0  0  0  0  0  0  0  0  0  0  0
  1  2  1  0  0  0  0
  1  3  1  0  0  0  0
  1  4  1  0  0  0  0
  4  5  1  0  0  0  0
  4  6  1  0  0  0  0
  4  7  1  0  0  0  0
  7  8  1  0  0  0  0
  7  9  1  0  0  0  0
  7 10  1  0  0  0  0
 10 11  1  0  0  0  0
 10 12  1  0  0  0  0
 10 13  1  0  0  0  0
 13 14  1  0  0  0  0
 13 15  1  0  0  0  0
 15 16  1  0  0  0  0
 15 17  1  0  0  0  0
  1 18  1  0  0  0  0
 15 18  1  0  0  0  0
 18 19  1  0  0  0  0
 18 20  1  0  0  0  0
 13 21  1  0  0  0  0
 21 22  1  0  0  0  0
M  END
> <VConfSearch Rank>
278

> <Conf_Id>
104

> <Delta U+W>
-1.172

> <U+W>
5.252

> <U>
7.482

> <W>
-2.230

> <W(PB)>
-4.220

> <W(SA)>
1.990

> <Valence>
12.309

> <Coulomb>
-7.084

> <VdW>
2.258

> <VdW6>
-9.770

> <VdW12>
12.028

> <Bond>
0.284

> <Angle>
3.491

> <Pdih>
8.535

> <Idih>
0.000

> <Tether>
0.000

$$$$
VeraChem MOL file


 22 22  0  0  0  0  0  0  0  0999 V2000     
   21.0053   20.8561   22.2102 C   0  0  0  0  0  0  0  0  0  0  0  0
   20.5661   21.5336   22.9549 H   0  0  0  0  0  0  0  0  0  0  0  0
   21.7379   21.4548   21.6519 H   0  0  0  0  0  0  0  0  0  0  0  0
   19.9339   20.3663   21.2094 C   0  0  0  0  0  0  0  0  0  0  0  0
   19.7602   21.1575   20.4671 H   0  0  0  0  0  0  0  0  0  0  0  0
   20.3330   19.5204   20.6345 H   0  0  0  0  0  0  0  0  0  0  0  0
   18.5631   19.9876   21.8251 C   0  0  0  0  0  0  0  0  0  0  0  0
   18.0706   19.2652   21.1597 H   0  0  0  0  0  0  0  0  0  0  0  0
   17.9198   20.8782   21.8150 H   0  0  0  0  0  0  0  0  0  0  0  0
   18.5638   19.4278   23.2735 C   0  0  0  0  0  0  0  0  0  0  0  0
   18.6651   20.2614   23.9804 H   0  0  0  0  0  0  0  0  0  0  0  0
   17.5722   19.0010   23.4723 H   0  0  0  0  0  0  0  0  0  0  0  0
   19.6250   18.3564   23.6141 C   0  0  0  0  0  0  0  0  0  0  0  0
   19.2581   17.7990   24.4879 H   0  0  0  0  0  0  0  0  0  0  0  0
   20.9874   18.9668   24.0135 C   0  0  0  0  0  0  0  0  0  0  0  0
   20.8306   19.6592   24.8508 H   0  0  0  0  0  0  0  0  0  0  0  0
   21.6199   18.1619   24.4102 H   0  0  0  0  0  0  0  0  0  0  0  0
   21.7709   19.6997   22.8964 C   0  0  0  0  0  0  0  0  0  0  0  0
   22.6875   20.1096   23.3420 H   0  0  0  0  0  0  0  0  0  0  0  0
   22.1078   18.9763   22.1417 H   0  0  0  0  0  0  0  0  0  0  0  0
   19.7912   17.4566   22.5293 O   0  0  0  0  0  0  0  0  0  0  0  0
   20.0343   18.0322   21.7770 H   0  0  0  0  0  0  0  0  0  0  0  0
  1  2  1  0  0  0  0
  1  3  1  0  0  0  0
  1  4  1  0  0  0  0
  4  5  1  0  0  0  0
  4  6  1  0  0  0  0
  4  7  1  0  0  0  0
  7  8  1  0  0  0  0
  7  9  1  0  0  0  0
  7 10  1  0  0  0  0
 10 11  1  0  0  0  0
 10 12  1  0  0  0  0
 10 13  1  0  0  0  0
 13 14  1  0  0  0  0
 13 15  1  0  0  0  0
 15 16  1  0  0  0  0
 15 17  1  0  0  0  0
  1 18  1  0  0  0  0
 15 18  1  0  0  0  0
 18 19  1  0  0  0  0
 18 20  1  0  0  0  0
 13 21  1  0  0  0  0
 21 22  1  0  0  0  0
M  END
> <VConfSearch Rank>
279

> <Conf_Id>
99

> <Delta U+W>
-3.852

> <U+W>
2.572

> <U>
3.922

> <W>
-1.350

> <W(PB)>
-3.345

> <W(SA)>
1.995

> <Valence>
12.571

> <Coulomb>
-10.581

> <VdW>
1.932

> <VdW6>
-10.483

> <VdW12>
12.415

> <Bond>
0.268

> <Angle>
3.728

> <Pdih>
8.575

> <Idih>
0.000

> <Tether>
0.000

$$$$
VeraChem MOL file


 22 22  0  0  0  0  0  0  0  0999 V2000     
   20.9744   20.2796   21.4530 C   0  0  0  0  0  0  0  0  0  0  0  0
   21.9286   20.6133   21.0223 H   0  0  0  0  0  0  0  0  0  0  0  0
   20.2247   20.4932   20.6795 H   0  0  0  0  0  0  0  0  0  0  0  0
   20.6966   21.1388   22.7212 C   0  0  0  0  0  0  0  0  0  0  0  0
   21.5304   21.8446   22.8393 H   0  0  0  0  0  0  0  0  0  0  0  0
   19.8117   21.7700   22.5642 H   0  0  0  0  0  0  0  0  0  0  0  0
   20.5473   20.3573   24.0515 C   0  0  0  0  0  0  0  0  0  0  0  0
   20.5514   21.0791   24.8796 H   0  0  0  0  0  0  0  0  0  0  0  0
   21.4381   19.7395   24.2200 H   0  0  0  0  0  0  0  0  0  0  0  0
   19.2695   19.4838   24.1887 C   0  0  0  0  0  0  0  0  0  0  0  0
   19.4615   18.7115   24.9447 H   0  0  0  0  0  0  0  0  0  0  0  0
   18.4673   20.1061   24.6072 H   0  0  0  0  0  0  0  0  0  0  0  0
   18.7121   18.7972   22.9174 C   0  0  0  0  0  0  0  0  0  0  0  0
   17.9666   18.0618   23.2524 H   0  0  0  0  0  0  0  0  0  0  0  0
   19.7385   18.0323   22.0459 C   0  0  0  0  0  0  0  0  0  0  0  0
   19.9859   17.0884   22.5485 H   0  0  0  0  0  0  0  0  0  0  0  0
   19.2315   17.7417   21.1162 H   0  0  0  0  0  0  0  0  0  0  0  0
   21.0673   18.7486   21.6770 C   0  0  0  0  0  0  0  0  0  0  0  0
   21.8286   18.5310   22.4364 H   0  0  0  0  0  0  0  0  0  0  0  0
   21.4540   18.2869   20.7583 H   0  0  0  0  0  0  0  0  0  0  0  0
   18.0294   19.7525   22.1209 O   0  0  0  0  0  0  0  0  0  0  0  0
   18.7304   20.3787   21.8500 H   0  0  0  0  0  0  0  0  0  0  0  0
  1  2  1  0  0  0  0
  1  3  1  0  0  0  0
  1  4  1  0  0  0  0
  4  5  1  0  0  0  0
  4  6  1  0  0  0  0
  4  7  1  0  0  0  0
  7  8  1  0  0  0  0
  7  9  1  0  0  0  0
  7 10  1  0  0  0  0
 10 11  1  0  0  0  0
 10 12  1  0  0  0  0
 10 13  1  0  0  0  0
 13 14  1  0  0  0  0
 13 15  1  0  0  0  0
 15 16  1  0  0  0  0
 15 17  1  0  0  0  0
  1 18  1  0  0  0  0
 15 18  1  0  0  0  0
 18 19  1  0  0  0  0
 18 20  1  0  0  0  0
 13 21  1  0  0  0  0
 21 22  1  0  0  0  0
M  END
> <VConfSearch Rank>
280

> <Conf_Id>
98

> <Delta U+W>
0.930

> <U+W>
7.353

> <U>
8.455

> <W>
-1.102

> <W(PB)>
-3.101

> <W(SA)>
2.000

> <Valence>
15.601

> <Coulomb>
-10.573

> <VdW>
3.427

> <VdW6>
-11.360

> <VdW12>
14.787

> <Bond>
0.471

> <Angle>
5.445

> <Pdih>
9.685

> <Idih>
0.000

> <Tether>
0.000

$$$$
VeraChem MOL file


 22 22  0  0  0  0  0  0  0  0999 V2000     
   19.3654   17.9527   22.4780 C   0  0  0  0  0  0  0  0  0  0  0  0
   20.3990   17.5832   22.4853 H   0  0  0  0  0  0  0  0  0  0  0  0
   18.7406   17.0510   22.4219 H   0  0  0  0  0  0  0  0  0  0  0  0
   19.1216   18.8018   21.2044 C   0  0  0  0  0  0  0  0  0  0  0  0
   19.3179   18.1586   20.3357 H   0  0  0  0  0  0  0  0  0  0  0  0
   18.0588   19.0719   21.1405 H   0  0  0  0  0  0  0  0  0  0  0  0
   19.9844   20.0861   21.0599 C   0  0  0  0  0  0  0  0  0  0  0  0
   19.3839   20.9722   21.3031 H   0  0  0  0  0  0  0  0  0  0  0  0
   20.2469   20.2047   19.9999 H   0  0  0  0  0  0  0  0  0  0  0  0
   21.2892   20.0991   21.8996 C   0  0  0  0  0  0  0  0  0  0  0  0
   21.8547   19.1804   21.7001 H   0  0  0  0  0  0  0  0  0  0  0  0
   21.9300   20.9104   21.5286 H   0  0  0  0  0  0  0  0  0  0  0  0
   21.1070   20.2636   23.4370 C   0  0  0  0  0  0  0  0  0  0  0  0
   21.7479   19.5221   23.9354 H   0  0  0  0  0  0  0  0  0  0  0  0
   19.6627   20.0899   23.9700 C   0  0  0  0  0  0  0  0  0  0  0  0
   19.6439   20.3482   25.0367 H   0  0  0  0  0  0  0  0  0  0  0  0
   19.0011   20.8199   23.4882 H   0  0  0  0  0  0  0  0  0  0  0  0
   19.0640   18.6695   23.8151 C   0  0  0  0  0  0  0  0  0  0  0  0
   19.4343   18.0366   24.6331 H   0  0  0  0  0  0  0  0  0  0  0  0
   17.9760   18.7334   23.9524 H   0  0  0  0  0  0  0  0  0  0  0  0
   21.5435   21.5670   23.8055 O   0  0  0  0  0  0  0  0  0  0  0  0
   21.4725   21.6235   24.7812 H   0  0  0  0  0  0  0  0  0  0  0  0
  1  2  1  0  0  0  0
  1  3  1  0  0  0  0
  1  4  1  0  0  0  0
  4  5  1  0  0  0  0
  4  6  1  0  0  0  0
  4  7  1  0  0  0  0
  7  8  1  0  0  0  0
  7  9  1  0  0  0  0
  7 10  1  0  0  0  0
 10 11  1  0  0  0  0
 10 12  1  0  0  0  0
 10 13  1  0  0  0  0
 13 14  1  0  0  0  0
 13 15  1  0  0  0  0
 15 16  1  0  0  0  0
 15 17  1  0  0  0  0
  1 18  1  0  0  0  0
 15 18  1  0  0  0  0
 18 19  1  0  0  0  0
 18 20  1  0  0  0  0
 13 21  1  0  0  0  0
 21 22  1  0  0  0  0
M  END
> <VConfSearch Rank>
281

> <Conf_Id>
141

> <Delta U+W>
0.000

> <U+W>
6.423

> <U>
8.781

> <W>
-2.358

> <W(PB)>
-4.373

> <W(SA)>
2.015

> <Valence>
13.328

> <Coulomb>
-8.387

> <VdW>
3.840

> <VdW6>
-9.744

> <VdW12>
13.584

> <Bond>
0.436

> <Angle>
3.478

> <Pdih>
9.415

> <Idih>
0.000

> <Tether>
0.000

$$$$
VeraChem MOL file


 22 22  0  0  0  0  0  0  0  0999 V2000     
   19.6261   17.9012   22.5671 C   0  0  0  0  0  0  0  0  0  0  0  0
   18.8225   18.0544   23.3002 H   0  0  0  0  0  0  0  0  0  0  0  0
   19.5805   16.8408   22.2837 H   0  0  0  0  0  0  0  0  0  0  0  0
   21.0131   18.1578   23.2045 C   0  0  0  0  0  0  0  0  0  0  0  0
   21.2137   17.3642   23.9372 H   0  0  0  0  0  0  0  0  0  0  0  0
   21.7913   18.0576   22.4356 H   0  0  0  0  0  0  0  0  0  0  0  0
   21.1697   19.5215   23.9158 C   0  0  0  0  0  0  0  0  0  0  0  0
   22.2083   19.6093   24.2629 H   0  0  0  0  0  0  0  0  0  0  0  0
   20.5489   19.5337   24.8222 H   0  0  0  0  0  0  0  0  0  0  0  0
   20.8339   20.7563   23.0442 C   0  0  0  0  0  0  0  0  0  0  0  0
   21.2006   21.6457   23.5732 H   0  0  0  0  0  0  0  0  0  0  0  0
   21.3809   20.7193   22.0932 H   0  0  0  0  0  0  0  0  0  0  0  0
   19.3177   20.9129   22.7907 C   0  0  0  0  0  0  0  0  0  0  0  0
   18.7806   20.5399   23.6746 H   0  0  0  0  0  0  0  0  0  0  0  0
   18.7928   20.1563   21.5492 C   0  0  0  0  0  0  0  0  0  0  0  0
   17.7033   20.0696   21.6503 H   0  0  0  0  0  0  0  0  0  0  0  0
   18.9640   20.7668   20.6524 H   0  0  0  0  0  0  0  0  0  0  0  0
   19.3827   18.7465   21.2951 C   0  0  0  0  0  0  0  0  0  0  0  0
   18.6936   18.2046   20.6331 H   0  0  0  0  0  0  0  0  0  0  0  0
   20.3213   18.8370   20.7316 H   0  0  0  0  0  0  0  0  0  0  0  0
   19.0213   22.2940   22.6231 O   0  0  0  0  0  0  0  0  0  0  0  0
   19.2923   22.7433   23.4509 H   0  0  0  0  0  0  0  0  0  0  0  0
  1  2  1  0  0  0  0
  1  3  1  0  0  0  0
  1  4  1  0  0  0  0
  4  5  1  0  0  0  0
  4  6  1  0  0  0  0
  4  7  1  0  0  0  0
  7  8  1  0  0  0  0
  7  9  1  0  0  0  0
  7 10  1  0  0  0  0
 10 11  1  0  0  0  0
 10 12  1  0  0  0  0
 10 13  1  0  0  0  0
 13 14  1  0  0  0  0
 13 15  1  0  0  0  0
 15 16  1  0  0  0  0
 15 17  1  0  0  0  0
  1 18  1  0  0  0  0
 15 18  1  0  0  0  0
 18 19  1  0  0  0  0
 18 20  1  0  0  0  0
 13 21  1  0  0  0  0
 21 22  1  0  0  0  0
M  END
> <VConfSearch Rank>
282

> <Conf_Id>
144

> <Delta U+W>
-3.291

> <U+W>
3.132

> <U>
5.411

> <W>
-2.279

> <W(PB)>
-4.300

> <W(SA)>
2.021

> <Valence>
11.909

> <Coulomb>
-8.733

> <VdW>
2.236

> <VdW6>
-8.936

> <VdW12>
11.172

> <Bond>
0.223

> <Angle>
2.457

> <Pdih>
9.228

> <Idih>
0.000

> <Tether>
0.000

$$$$
VeraChem MOL file


 22 22  0  0  0  0  0  0  0  0999 V2000     
   18.6897   18.6299   21.8863 C   0  0  0  0  0  0  0  0  0  0  0  0
   17.8073   18.0090   21.6795 H   0  0  0  0  0  0  0  0  0  0  0  0
   19.1339   18.8619   20.9088 H   0  0  0  0  0  0  0  0  0  0  0  0
   19.6661   17.8001   22.7524 C   0  0  0  0  0  0  0  0  0  0  0  0
   19.3590   17.8565   23.8056 H   0  0  0  0  0  0  0  0  0  0  0  0
   19.5732   16.7407   22.4767 H   0  0  0  0  0  0  0  0  0  0  0  0
   21.1568   18.1969   22.6242 C   0  0  0  0  0  0  0  0  0  0  0  0
   21.5849   17.6983   21.7438 H   0  0  0  0  0  0  0  0  0  0  0  0
   21.6955   17.7878   23.4899 H   0  0  0  0  0  0  0  0  0  0  0  0
   21.4570   19.7121   22.5137 C   0  0  0  0  0  0  0  0  0  0  0  0
   22.5159   19.8637   22.7631 H   0  0  0  0  0  0  0  0  0  0  0  0
   21.3499   20.0254   21.4672 H   0  0  0  0  0  0  0  0  0  0  0  0
   20.5817   20.6167   23.4099 C   0  0  0  0  0  0  0  0  0  0  0  0
   20.3553   20.0948   24.3506 H   0  0  0  0  0  0  0  0  0  0  0  0
   19.2640   21.0371   22.7201 C   0  0  0  0  0  0  0  0  0  0  0  0
   18.8178   21.8641   23.2885 H   0  0  0  0  0  0  0  0  0  0  0  0
   19.4847   21.4391   21.7227 H   0  0  0  0  0  0  0  0  0  0  0  0
   18.2032   19.9181   22.5925 C   0  0  0  0  0  0  0  0  0  0  0  0
   17.8198   19.6646   23.5903 H   0  0  0  0  0  0  0  0  0  0  0  0
   17.3457   20.3202   22.0359 H   0  0  0  0  0  0  0  0  0  0  0  0
   21.3156   21.7975   23.7052 O   0  0  0  0  0  0  0  0  0  0  0  0
   21.4988   22.2313   22.8465 H   0  0  0  0  0  0  0  0  0  0  0  0
  1  2  1  0  0  0  0
  1  3  1  0  0  0  0
  1  4  1  0  0  0  0
  4  5  1  0  0  0  0
  4  6  1  0  0  0  0
  4  7  1  0  0  0  0
  7  8  1  0  0  0  0
  7  9  1  0  0  0  0
  7 10  1  0  0  0  0
 10 11  1  0  0  0  0
 10 12  1  0  0  0  0
 10 13  1  0  0  0  0
 13 14  1  0  0  0  0
 13 15  1  0  0  0  0
 15 16  1  0  0  0  0
 15 17  1  0  0  0  0
  1 18  1  0  0  0  0
 15 18  1  0  0  0  0
 18 19  1  0  0  0  0
 18 20  1  0  0  0  0
 13 21  1  0  0  0  0
 21 22  1  0  0  0  0
M  END
> <VConfSearch Rank>
283

> <Conf_Id>
76

> <Delta U+W>
-3.175

> <U+W>
3.248

> <U>
5.336

> <W>
-2.088

> <W(PB)>
-4.098

> <W(SA)>
2.010

> <Valence>
12.390

> <Coulomb>
-9.270

> <VdW>
2.216

> <VdW6>
-8.967

> <VdW12>
11.183

> <Bond>
0.218

> <Angle>
2.426

> <Pdih>
9.745

> <Idih>
0.000

> <Tether>
0.000

$$$$
VeraChem MOL file


 22 22  0  0  0  0  0  0  0  0999 V2000     
   19.2630   18.2427   23.7550 C   0  0  0  0  0  0  0  0  0  0  0  0
   18.1954   17.9882   23.8027 H   0  0  0  0  0  0  0  0  0  0  0  0
   19.7724   17.5135   24.3996 H   0  0  0  0  0  0  0  0  0  0  0  0
   19.4503   19.6576   24.3529 C   0  0  0  0  0  0  0  0  0  0  0  0
   18.5919   20.2869   24.0816 H   0  0  0  0  0  0  0  0  0  0  0  0
   19.4163   19.5707   25.4475 H   0  0  0  0  0  0  0  0  0  0  0  0
   20.7605   20.3716   23.9463 C   0  0  0  0  0  0  0  0  0  0  0  0
   21.5946   19.6592   23.8859 H   0  0  0  0  0  0  0  0  0  0  0  0
   21.0232   21.0814   24.7422 H   0  0  0  0  0  0  0  0  0  0  0  0
   20.6228   21.1723   22.6265 C   0  0  0  0  0  0  0  0  0  0  0  0
   19.7405   21.8220   22.6890 H   0  0  0  0  0  0  0  0  0  0  0  0
   21.4820   21.8499   22.5366 H   0  0  0  0  0  0  0  0  0  0  0  0
   20.5359   20.3387   21.3278 C   0  0  0  0  0  0  0  0  0  0  0  0
   20.2613   21.0347   20.5221 H   0  0  0  0  0  0  0  0  0  0  0  0
   19.4732   19.2113   21.3380 C   0  0  0  0  0  0  0  0  0  0  0  0
   18.4834   19.6350   21.5519 H   0  0  0  0  0  0  0  0  0  0  0  0
   19.4085   18.8081   20.3192 H   0  0  0  0  0  0  0  0  0  0  0  0
   19.7677   18.0367   22.3069 C   0  0  0  0  0  0  0  0  0  0  0  0
   19.2969   17.1262   21.9122 H   0  0  0  0  0  0  0  0  0  0  0  0
   20.8446   17.8231   22.3236 H   0  0  0  0  0  0  0  0  0  0  0  0
   21.8195   19.7989   21.0292 O   0  0  0  0  0  0  0  0  0  0  0  0
   21.7085   19.2392   20.2337 H   0  0  0  0  0  0  0  0  0  0  0  0
  1  2  1  0  0  0  0
  1  3  1  0  0  0  0
  1  4  1  0  0  0  0
  4  5  1  0  0  0  0
  4  6  1  0  0  0  0
  4  7  1  0  0  0  0
  7  8  1  0  0  0  0
  7  9  1  0  0  0  0
  7 10  1  0  0  0  0
 10 11  1  0  0  0  0
 10 12  1  0  0  0  0
 10 13  1  0  0  0  0
 13 14  1  0  0  0  0
 13 15  1  0  0  0  0
 15 16  1  0  0  0  0
 15 17  1  0  0  0  0
  1 18  1  0  0  0  0
 15 18  1  0  0  0  0
 18 19  1  0  0  0  0
 18 20  1  0  0  0  0
 13 21  1  0  0  0  0
 21 22  1  0  0  0  0
M  END
> <VConfSearch Rank>
284

> <Conf_Id>
95

> <Delta U+W>
-2.289

> <U+W>
4.134

> <U>
6.373

> <W>
-2.240

> <W(PB)>
-4.254

> <W(SA)>
2.015

> <Valence>
12.093

> <Coulomb>
-8.058

> <VdW>
2.339

> <VdW6>
-9.683

> <VdW12>
12.022

> <Bond>
0.268

> <Angle>
3.005

> <Pdih>
8.820

> <Idih>
0.000

> <Tether>
0.000

$$$$
VeraChem MOL file


 22 22  0  0  0  0  0  0  0  0999 V2000     
   21.1745   21.0942   23.1857 C   0  0  0  0  0  0  0  0  0  0  0  0
   21.0902   21.7549   24.0593 H   0  0  0  0  0  0  0  0  0  0  0  0
   22.0761   21.4217   22.6503 H   0  0  0  0  0  0  0  0  0  0  0  0
   19.9415   21.3288   22.2807 C   0  0  0  0  0  0  0  0  0  0  0  0
   19.0594   21.5203   22.9066 H   0  0  0  0  0  0  0  0  0  0  0  0
   20.1070   22.2561   21.7155 H   0  0  0  0  0  0  0  0  0  0  0  0
   19.6299   20.1846   21.2881 C   0  0  0  0  0  0  0  0  0  0  0  0
   20.5553   19.7462   20.8904 H   0  0  0  0  0  0  0  0  0  0  0  0
   19.1020   20.6157   20.4268 H   0  0  0  0  0  0  0  0  0  0  0  0
   18.7183   19.0924   21.9024 C   0  0  0  0  0  0  0  0  0  0  0  0
   17.8462   19.5716   22.3658 H   0  0  0  0  0  0  0  0  0  0  0  0
   18.3136   18.4752   21.0898 H   0  0  0  0  0  0  0  0  0  0  0  0
   19.3791   18.1575   22.9413 C   0  0  0  0  0  0  0  0  0  0  0  0
   18.5704   17.5700   23.3995 H   0  0  0  0  0  0  0  0  0  0  0  0
   20.1261   18.8769   24.0922 C   0  0  0  0  0  0  0  0  0  0  0  0
   19.4399   19.5511   24.6205 H   0  0  0  0  0  0  0  0  0  0  0  0
   20.4132   18.1091   24.8222 H   0  0  0  0  0  0  0  0  0  0  0  0
   21.4068   19.6430   23.6700 C   0  0  0  0  0  0  0  0  0  0  0  0
   22.0943   19.6790   24.5257 H   0  0  0  0  0  0  0  0  0  0  0  0
   21.9402   19.0790   22.8935 H   0  0  0  0  0  0  0  0  0  0  0  0
   20.2586   17.2572   22.2744 O   0  0  0  0  0  0  0  0  0  0  0  0
   19.7439   16.8452   21.5508 H   0  0  0  0  0  0  0  0  0  0  0  0
  1  2  1  0  0  0  0
  1  3  1  0  0  0  0
  1  4  1  0  0  0  0
  4  5  1  0  0  0  0
  4  6  1  0  0  0  0
  4  7  1  0  0  0  0
  7  8  1  0  0  0  0
  7  9  1  0  0  0  0
  7 10  1  0  0  0  0
 10 11  1  0  0  0  0
 10 12  1  0  0  0  0
 10 13  1  0  0  0  0
 13 14  1  0  0  0  0
 13 15  1  0  0  0  0
 15 16  1  0  0  0  0
 15 17  1  0  0  0  0
  1 18  1  0  0  0  0
 15 18  1  0  0  0  0
 18 19  1  0  0  0  0
 18 20  1  0  0  0  0
 13 21  1  0  0  0  0
 21 22  1  0  0  0  0
M  END
> <VConfSearch Rank>
285

> <Conf_Id>
41

> <Delta U+W>
-2.114

> <U+W>
4.310

> <U>
6.598

> <W>
-2.289

> <W(PB)>
-4.294

> <W(SA)>
2.005

> <Valence>
12.082

> <Coulomb>
-7.801

> <VdW>
2.317

> <VdW6>
-9.658

> <VdW12>
11.975

> <Bond>
0.267

> <Angle>
3.051

> <Pdih>
8.764

> <Idih>
0.000

> <Tether>
0.000

$$$$
VeraChem MOL file


 22 22  0  0  0  0  0  0  0  0999 V2000     
   19.2518   20.8018   22.0195 C   0  0  0  0  0  0  0  0  0  0  0  0
   18.7926   21.7673   21.7675 H   0  0  0  0  0  0  0  0  0  0  0  0
   19.2676   20.2164   21.0898 H   0  0  0  0  0  0  0  0  0  0  0  0
   18.3627   20.1170   23.0815 C   0  0  0  0  0  0  0  0  0  0  0  0
   18.4100   20.6837   24.0213 H   0  0  0  0  0  0  0  0  0  0  0  0
   17.3167   20.1699   22.7503 H   0  0  0  0  0  0  0  0  0  0  0  0
   18.7092   18.6368   23.3544 C   0  0  0  0  0  0  0  0  0  0  0  0
   18.4584   18.0341   22.4714 H   0  0  0  0  0  0  0  0  0  0  0  0
   18.0479   18.2764   24.1537 H   0  0  0  0  0  0  0  0  0  0  0  0
   20.1788   18.3706   23.7792 C   0  0  0  0  0  0  0  0  0  0  0  0
   20.4550   19.0286   24.6128 H   0  0  0  0  0  0  0  0  0  0  0  0
   20.2293   17.3495   24.1784 H   0  0  0  0  0  0  0  0  0  0  0  0
   21.2401   18.4737   22.6535 C   0  0  0  0  0  0  0  0  0  0  0  0
   22.1405   17.9605   23.0212 H   0  0  0  0  0  0  0  0  0  0  0  0
   21.6870   19.9094   22.2740 C   0  0  0  0  0  0  0  0  0  0  0  0
   22.6032   20.1380   22.8338 H   0  0  0  0  0  0  0  0  0  0  0  0
   21.9841   19.9240   21.2172 H   0  0  0  0  0  0  0  0  0  0  0  0
   20.6877   21.0661   22.5237 C   0  0  0  0  0  0  0  0  0  0  0  0
   20.6661   21.3162   23.5930 H   0  0  0  0  0  0  0  0  0  0  0  0
   21.0776   21.9611   22.0200 H   0  0  0  0  0  0  0  0  0  0  0  0
   20.7977   17.7850   21.4869 O   0  0  0  0  0  0  0  0  0  0  0  0
   21.5199   17.8495   20.8295 H   0  0  0  0  0  0  0  0  0  0  0  0
  1  2  1  0  0  0  0
  1  3  1  0  0  0  0
  1  4  1  0  0  0  0
  4  5  1  0  0  0  0
  4  6  1  0  0  0  0
  4  7  1  0  0  0  0
  7  8  1  0  0  0  0
  7  9  1  0  0  0  0
  7 10  1  0  0  0  0
 10 11  1  0  0  0  0
 10 12  1  0  0  0  0
 10 13  1  0  0  0  0
 13 14  1  0  0  0  0
 13 15  1  0  0  0  0
 15 16  1  0  0  0  0
 15 17  1  0  0  0  0
  1 18  1  0  0  0  0
 15 18  1  0  0  0  0
 18 19  1  0  0  0  0
 18 20  1  0  0  0  0
 13 21  1  0  0  0  0
 21 22  1  0  0  0  0
M  END
> <VConfSearch Rank>
286

> <Conf_Id>
104

> <Delta U+W>
-1.172

> <U+W>
5.252

> <U>
7.482

> <W>
-2.230

> <W(PB)>
-4.220

> <W(SA)>
1.990

> <Valence>
12.309

> <Coulomb>
-7.084

> <VdW>
2.258

> <VdW6>
-9.770

> <VdW12>
12.028

> <Bond>
0.284

> <Angle>
3.491

> <Pdih>
8.535

> <Idih>
0.000

> <Tether>
0.000

$$$$
VeraChem MOL file


 22 22  0  0  0  0  0  0  0  0999 V2000     
   21.3091   18.7138   22.0431 C   0  0  0  0  0  0  0  0  0  0  0  0
   21.4900   18.1779   22.9847 H   0  0  0  0  0  0  0  0  0  0  0  0
   22.0667   18.3477   21.3368 H   0  0  0  0  0  0  0  0  0  0  0  0
   21.5255   20.2339   22.2226 C   0  0  0  0  0  0  0  0  0  0  0  0
   22.6044   20.4397   22.1959 H   0  0  0  0  0  0  0  0  0  0  0  0
   21.1136   20.7648   21.3544 H   0  0  0  0  0  0  0  0  0  0  0  0
   20.9613   20.8425   23.5314 C   0  0  0  0  0  0  0  0  0  0  0  0
   20.7610   21.9093   23.3607 H   0  0  0  0  0  0  0  0  0  0  0  0
   21.7495   20.8132   24.2961 H   0  0  0  0  0  0  0  0  0  0  0  0
   19.6962   20.1772   24.1380 C   0  0  0  0  0  0  0  0  0  0  0  0
   19.9920   19.2664   24.6745 H   0  0  0  0  0  0  0  0  0  0  0  0
   19.2972   20.8486   24.9095 H   0  0  0  0  0  0  0  0  0  0  0  0
   18.5476   19.8287   23.1637 C   0  0  0  0  0  0  0  0  0  0  0  0
   17.6260   19.7526   23.7584 H   0  0  0  0  0  0  0  0  0  0  0  0
   18.7444   18.4629   22.4680 C   0  0  0  0  0  0  0  0  0  0  0  0
   18.8677   17.6905   23.2383 H   0  0  0  0  0  0  0  0  0  0  0  0
   17.8146   18.2097   21.9420 H   0  0  0  0  0  0  0  0  0  0  0  0
   19.9186   18.3615   21.4631 C   0  0  0  0  0  0  0  0  0  0  0  0
   19.9526   17.3293   21.0888 H   0  0  0  0  0  0  0  0  0  0  0  0
   19.7119   18.9872   20.5844 H   0  0  0  0  0  0  0  0  0  0  0  0
   18.3879   20.8530   22.1944 O   0  0  0  0  0  0  0  0  0  0  0  0
   19.2656   20.9169   21.7680 H   0  0  0  0  0  0  0  0  0  0  0  0
  1  2  1  0  0  0  0
  1  3  1  0  0  0  0
  1  4  1  0  0  0  0
  4  5  1  0  0  0  0
  4  6  1  0  0  0  0
  4  7  1  0  0  0  0
  7  8  1  0  0  0  0
  7  9  1  0  0  0  0
  7 10  1  0  0  0  0
 10 11  1  0  0  0  0
 10 12  1  0  0  0  0
 10 13  1  0  0  0  0
 13 14  1  0  0  0  0
 13 15  1  0  0  0  0
 15 16  1  0  0  0  0
 15 17  1  0  0  0  0
  1 18  1  0  0  0  0
 15 18  1  0  0  0  0
 18 19  1  0  0  0  0
 18 20  1  0  0  0  0
 13 21  1  0  0  0  0
 21 22  1  0  0  0  0
M  END
> <VConfSearch Rank>
287

> <Conf_Id>
99

> <Delta U+W>
-3.852

> <U+W>
2.572

> <U>
3.922

> <W>
-1.350

> <W(PB)>
-3.345

> <W(SA)>
1.995

> <Valence>
12.571

> <Coulomb>
-10.581

> <VdW>
1.932

> <VdW6>
-10.483

> <VdW12>
12.415

> <Bond>
0.268

> <Angle>
3.728

> <Pdih>
8.575

> <Idih>
0.000

> <Tether>
0.000

$$$$
VeraChem MOL file


 22 22  0  0  0  0  0  0  0  0999 V2000     
   19.7562   18.2199   23.5682 C   0  0  0  0  0  0  0  0  0  0  0  0
   19.5842   17.7028   24.5223 H   0  0  0  0  0  0  0  0  0  0  0  0
   19.6543   17.4405   22.8013 H   0  0  0  0  0  0  0  0  0  0  0  0
   21.2114   18.7732   23.5806 C   0  0  0  0  0  0  0  0  0  0  0  0
   21.6693   18.4954   24.5400 H   0  0  0  0  0  0  0  0  0  0  0  0
   21.8168   18.2628   22.8197 H   0  0  0  0  0  0  0  0  0  0  0  0
   21.3558   20.3077   23.4152 C   0  0  0  0  0  0  0  0  0  0  0  0
   22.3963   20.5834   23.6349 H   0  0  0  0  0  0  0  0  0  0  0  0
   20.7664   20.8203   24.1855 H   0  0  0  0  0  0  0  0  0  0  0  0
   20.9985   20.8785   22.0147 C   0  0  0  0  0  0  0  0  0  0  0  0
   20.7588   21.9435   22.1295 H   0  0  0  0  0  0  0  0  0  0  0  0
   21.9001   20.8500   21.3883 H   0  0  0  0  0  0  0  0  0  0  0  0
   19.8556   20.2020   21.2183 C   0  0  0  0  0  0  0  0  0  0  0  0
   19.6078   20.8728   20.3832 H   0  0  0  0  0  0  0  0  0  0  0  0
   18.5401   19.9435   21.9934 C   0  0  0  0  0  0  0  0  0  0  0  0
   18.0097   20.8979   22.1054 H   0  0  0  0  0  0  0  0  0  0  0  0
   17.8951   19.3266   21.3537 H   0  0  0  0  0  0  0  0  0  0  0  0
   18.6314   19.2718   23.3917 C   0  0  0  0  0  0  0  0  0  0  0  0
   18.7198   20.0422   24.1676 H   0  0  0  0  0  0  0  0  0  0  0  0
   17.6674   18.7854   23.5943 H   0  0  0  0  0  0  0  0  0  0  0  0
   20.3228   18.9866   20.6547 O   0  0  0  0  0  0  0  0  0  0  0  0
   20.5280   18.4291   21.4318 H   0  0  0  0  0  0  0  0  0  0  0  0
  1  2  1  0  0  0  0
  1  3  1  0  0  0  0
  1  4  1  0  0  0  0
  4  5  1  0  0  0  0
  4  6  1  0  0  0  0
  4  7  1  0  0  0  0
  7  8  1  0  0  0  0
  7  9  1  0  0  0  0
  7 10  1  0  0  0  0
 10 11  1  0  0  0  0
 10 12  1  0  0  0  0
 10 13  1  0  0  0  0
 13 14  1  0  0  0  0
 13 15  1  0  0  0  0
 15 16  1  0  0  0  0
 15 17  1  0  0  0  0
  1 18  1  0  0  0  0
 15 18  1  0  0  0  0
 18 19  1  0  0  0  0
 18 20  1  0  0  0  0
 13 21  1  0  0  0  0
 21 22  1  0  0  0  0
M  END
> <VConfSearch Rank>
288

> <Conf_Id>
98

> <Delta U+W>
0.930

> <U+W>
7.353

> <U>
8.455

> <W>
-1.102

> <W(PB)>
-3.101

> <W(SA)>
2.000

> <Valence>
15.601

> <Coulomb>
-10.573

> <VdW>
3.427

> <VdW6>
-11.360

> <VdW12>
14.787

> <Bond>
0.471

> <Angle>
5.445

> <Pdih>
9.685

> <Idih>
0.000

> <Tether>
0.000

$$$$
VeraChem MOL file


 22 22  0  0  0  0  0  0  0  0999 V2000     
   20.3960   20.3956   24.0928 C   0  0  0  0  0  0  0  0  0  0  0  0
   19.3888   20.1432   24.4486 H   0  0  0  0  0  0  0  0  0  0  0  0
   20.8660   20.9351   24.9263 H   0  0  0  0  0  0  0  0  0  0  0  0
   20.2978   21.3533   22.8782 C   0  0  0  0  0  0  0  0  0  0  0  0
   19.7582   22.2515   23.2081 H   0  0  0  0  0  0  0  0  0  0  0  0
   21.3031   21.6963   22.5982 H   0  0  0  0  0  0  0  0  0  0  0  0
   19.5801   20.7936   21.6187 C   0  0  0  0  0  0  0  0  0  0  0  0
   20.3195   20.5170   20.8559 H   0  0  0  0  0  0  0  0  0  0  0  0
   18.9980   21.6077   21.1661 H   0  0  0  0  0  0  0  0  0  0  0  0
   18.6338   19.5922   21.8812 C   0  0  0  0  0  0  0  0  0  0  0  0
   17.9380   19.8519   22.6887 H   0  0  0  0  0  0  0  0  0  0  0  0
   17.9986   19.4537   20.9959 H   0  0  0  0  0  0  0  0  0  0  0  0
   19.3283   18.2406   22.2196 C   0  0  0  0  0  0  0  0  0  0  0  0
   18.8106   17.8009   23.0843 H   0  0  0  0  0  0  0  0  0  0  0  0
   20.8397   18.3203   22.5507 C   0  0  0  0  0  0  0  0  0  0  0  0
   21.2362   17.3014   22.6494 H   0  0  0  0  0  0  0  0  0  0  0  0
   21.3809   18.7559   21.7022 H   0  0  0  0  0  0  0  0  0  0  0  0
   21.1964   19.0957   23.8435 C   0  0  0  0  0  0  0  0  0  0  0  0
   21.0495   18.4331   24.7073 H   0  0  0  0  0  0  0  0  0  0  0  0
   22.2692   19.3312   23.8235 H   0  0  0  0  0  0  0  0  0  0  0  0
   19.1813   17.3671   21.1058 O   0  0  0  0  0  0  0  0  0  0  0  0
   19.5750   16.5084   21.3662 H   0  0  0  0  0  0  0  0  0  0  0  0
  1  2  1  0  0  0  0
  1  3  1  0  0  0  0
  1  4  1  0  0  0  0
  4  5  1  0  0  0  0
  4  6  1  0  0  0  0
  4  7  1  0  0  0  0
  7  8  1  0  0  0  0
  7  9  1  0  0  0  0
  7 10  1  0  0  0  0
 10 11  1  0  0  0  0
 10 12  1  0  0  0  0
 10 13  1  0  0  0  0
 13 14  1  0  0  0  0
 13 15  1  0  0  0  0
 15 16  1  0  0  0  0
 15 17  1  0  0  0  0
  1 18  1  0  0  0  0
 15 18  1  0  0  0  0
 18 19  1  0  0  0  0
 18 20  1  0  0  0  0
 13 21  1  0  0  0  0
 21 22  1  0  0  0  0
M  END
> <VConfSearch Rank>
289

> <Conf_Id>
141

> <Delta U+W>
0.000

> <U+W>
6.423

> <U>
8.781

> <W>
-2.358

> <W(PB)>
-4.373

> <W(SA)>
2.015

> <Valence>
13.328

> <Coulomb>
-8.387

> <VdW>
3.840

> <VdW6>
-9.744

> <VdW12>
13.584

> <Bond>
0.436

> <Angle>
3.478

> <Pdih>
9.415

> <Idih>
0.000

> <Tether>
0.000

$$$$
VeraChem MOL file


 22 22  0  0  0  0  0  0  0  0999 V2000     
   18.7382   20.2432   23.7100 C   0  0  0  0  0  0  0  0  0  0  0  0
   18.1570   19.3281   23.5327 H   0  0  0  0  0  0  0  0  0  0  0  0
   18.1596   20.8352   24.4322 H   0  0  0  0  0  0  0  0  0  0  0  0
   18.8655   21.0782   22.4130 C   0  0  0  0  0  0  0  0  0  0  0  0
   17.8753   21.4789   22.1563 H   0  0  0  0  0  0  0  0  0  0  0  0
   19.5011   21.9535   22.6044 H   0  0  0  0  0  0  0  0  0  0  0  0
   19.4081   20.3108   21.1854 C   0  0  0  0  0  0  0  0  0  0  0  0
   19.5146   21.0232   20.3560 H   0  0  0  0  0  0  0  0  0  0  0  0
   18.6612   19.5760   20.8551 H   0  0  0  0  0  0  0  0  0  0  0  0
   20.7668   19.6018   21.4054 C   0  0  0  0  0  0  0  0  0  0  0  0
   21.1473   19.3004   20.4206 H   0  0  0  0  0  0  0  0  0  0  0  0
   21.5061   20.3008   21.8176 H   0  0  0  0  0  0  0  0  0  0  0  0
   20.6477   18.3491   22.3021 C   0  0  0  0  0  0  0  0  0  0  0  0
   19.6641   17.8910   22.1245 H   0  0  0  0  0  0  0  0  0  0  0  0
   20.7865   18.6278   23.8162 C   0  0  0  0  0  0  0  0  0  0  0  0
   20.3740   17.7628   24.3514 H   0  0  0  0  0  0  0  0  0  0  0  0
   21.8513   18.6664   24.0824 H   0  0  0  0  0  0  0  0  0  0  0  0
   20.1069   19.9135   24.3503 C   0  0  0  0  0  0  0  0  0  0  0  0
   19.9758   19.8024   25.4353 H   0  0  0  0  0  0  0  0  0  0  0  0
   20.7853   20.7680   24.2222 H   0  0  0  0  0  0  0  0  0  0  0  0
   21.6595   17.4212   21.9302 O   0  0  0  0  0  0  0  0  0  0  0  0
   21.5072   17.2003   20.9875 H   0  0  0  0  0  0  0  0  0  0  0  0
  1  2  1  0  0  0  0
  1  3  1  0  0  0  0
  1  4  1  0  0  0  0
  4  5  1  0  0  0  0
  4  6  1  0  0  0  0
  4  7  1  0  0  0  0
  7  8  1  0  0  0  0
  7  9  1  0  0  0  0
  7 10  1  0  0  0  0
 10 11  1  0  0  0  0
 10 12  1  0  0  0  0
 10 13  1  0  0  0  0
 13 14  1  0  0  0  0
 13 15  1  0  0  0  0
 15 16  1  0  0  0  0
 15 17  1  0  0  0  0
  1 18  1  0  0  0  0
 15 18  1  0  0  0  0
 18 19  1  0  0  0  0
 18 20  1  0  0  0  0
 13 21  1  0  0  0  0
 21 22  1  0  0  0  0
M  END
> <VConfSearch Rank>
290

> <Conf_Id>
144

> <Delta U+W>
-3.291

> <U+W>
3.132

> <U>
5.411

> <W>
-2.279

> <W(PB)>
-4.300

> <W(SA)>
2.021

> <Valence>
11.909

> <Coulomb>
-8.733

> <VdW>
2.236

> <VdW6>
-8.936

> <VdW12>
11.172

> <Bond>
0.223

> <Angle>
2.457

> <Pdih>
9.228

> <Idih>
0.000

> <Tether>
0.000

$$$$
VeraChem MOL file


 22 22  0  0  0  0  0  0  0  0999 V2000     
   18.6541   19.9522   23.7445 C   0  0  0  0  0  0  0  0  0  0  0  0
   17.7902   20.4187   24.2374 H   0  0  0  0  0  0  0  0  0  0  0  0
   18.9465   19.1058   24.3807 H   0  0  0  0  0  0  0  0  0  0  0  0
   19.7869   21.0025   23.6696 C   0  0  0  0  0  0  0  0  0  0  0  0
   19.6231   21.6556   22.8016 H   0  0  0  0  0  0  0  0  0  0  0  0
   19.7204   21.6600   24.5473 H   0  0  0  0  0  0  0  0  0  0  0  0
   21.2199   20.4198   23.6181 C   0  0  0  0  0  0  0  0  0  0  0  0
   21.5531   20.1994   24.6415 H   0  0  0  0  0  0  0  0  0  0  0  0
   21.8949   21.2033   23.2471 H   0  0  0  0  0  0  0  0  0  0  0  0
   21.4117   19.1429   22.7631 C   0  0  0  0  0  0  0  0  0  0  0  0
   22.4838   19.0415   22.5469 H   0  0  0  0  0  0  0  0  0  0  0  0
   21.1447   18.2637   23.3635 H   0  0  0  0  0  0  0  0  0  0  0  0
   20.6143   19.1192   21.4398 C   0  0  0  0  0  0  0  0  0  0  0  0
   20.5496   20.1374   21.0306 H   0  0  0  0  0  0  0  0  0  0  0  0
   19.1924   18.5394   21.6152 C   0  0  0  0  0  0  0  0  0  0  0  0
   18.7793   18.3147   20.6227 H   0  0  0  0  0  0  0  0  0  0  0  0
   19.2509   17.5790   22.1438 H   0  0  0  0  0  0  0  0  0  0  0  0
   18.1925   19.4629   22.3507 C   0  0  0  0  0  0  0  0  0  0  0  0
   17.9642   20.3306   21.7166 H   0  0  0  0  0  0  0  0  0  0  0  0
   17.2448   18.9195   22.4664 H   0  0  0  0  0  0  0  0  0  0  0  0
   21.3101   18.2956   20.5137 O   0  0  0  0  0  0  0  0  0  0  0  0
   21.3486   17.4020   20.9127 H   0  0  0  0  0  0  0  0  0  0  0  0
  1  2  1  0  0  0  0
  1  3  1  0  0  0  0
  1  4  1  0  0  0  0
  4  5  1  0  0  0  0
  4  6  1  0  0  0  0
  4  7  1  0  0  0  0
  7  8  1  0  0  0  0
  7  9  1  0  0  0  0
  7 10  1  0  0  0  0
 10 11  1  0  0  0  0
 10 12  1  0  0  0  0
 10 13  1  0  0  0  0
 13 14  1  0  0  0  0
 13 15  1  0  0  0  0
 15 16  1  0  0  0  0
 15 17  1  0  0  0  0
  1 18  1  0  0  0  0
 15 18  1  0  0  0  0
 18 19  1  0  0  0  0
 18 20  1  0  0  0  0
 13 21  1  0  0  0  0
 21 22  1  0  0  0  0
M  END
> <VConfSearch Rank>
291

> <Conf_Id>
76

> <Delta U+W>
-3.175

> <U+W>
3.248

> <U>
5.336

> <W>
-2.088

> <W(PB)>
-4.098

> <W(SA)>
2.010

> <Valence>
12.390

> <Coulomb>
-9.270

> <VdW>
2.216

> <VdW6>
-8.967

> <VdW12>
11.183

> <Bond>
0.218

> <Angle>
2.426

> <Pdih>
9.745

> <Idih>
0.000

> <Tether>
0.000

$$$$
VeraChem MOL file


 22 22  0  0  0  0  0  0  0  0999 V2000     
   21.1620   18.9235   24.0733 C   0  0  0  0  0  0  0  0  0  0  0  0
   20.9241   18.8909   25.1453 H   0  0  0  0  0  0  0  0  0  0  0  0
   22.1393   18.4325   23.9698 H   0  0  0  0  0  0  0  0  0  0  0  0
   21.2989   20.4065   23.6529 C   0  0  0  0  0  0  0  0  0  0  0  0
   20.5654   21.0124   24.2019 H   0  0  0  0  0  0  0  0  0  0  0  0
   22.2829   20.7641   23.9855 H   0  0  0  0  0  0  0  0  0  0  0  0
   21.1540   20.6727   22.1364 C   0  0  0  0  0  0  0  0  0  0  0  0
   21.6126   19.8652   21.5495 H   0  0  0  0  0  0  0  0  0  0  0  0
   21.7182   21.5834   21.8946 H   0  0  0  0  0  0  0  0  0  0  0  0
   19.6829   20.9005   21.7050 C   0  0  0  0  0  0  0  0  0  0  0  0
   19.2299   21.6601   22.3548 H   0  0  0  0  0  0  0  0  0  0  0  0
   19.6768   21.3339   20.6963 H   0  0  0  0  0  0  0  0  0  0  0  0
   18.7736   19.6506   21.6918 C   0  0  0  0  0  0  0  0  0  0  0  0
   17.7443   20.0090   21.5466 H   0  0  0  0  0  0  0  0  0  0  0  0
   18.7850   18.8134   22.9954 C   0  0  0  0  0  0  0  0  0  0  0  0
   18.5021   19.4462   23.8465 H   0  0  0  0  0  0  0  0  0  0  0  0
   17.9922   18.0589   22.9113 H   0  0  0  0  0  0  0  0  0  0  0  0
   20.1194   18.0832   23.2981 C   0  0  0  0  0  0  0  0  0  0  0  0
   19.9038   17.1837   23.8904 H   0  0  0  0  0  0  0  0  0  0  0  0
   20.5681   17.7164   22.3655 H   0  0  0  0  0  0  0  0  0  0  0  0
   19.1187   18.8303   20.5800 O   0  0  0  0  0  0  0  0  0  0  0  0
   18.5580   18.0301   20.6392 H   0  0  0  0  0  0  0  0  0  0  0  0
  1  2  1  0  0  0  0
  1  3  1  0  0  0  0
  1  4  1  0  0  0  0
  4  5  1  0  0  0  0
  4  6  1  0  0  0  0
  4  7  1  0  0  0  0
  7  8  1  0  0  0  0
  7  9  1  0  0  0  0
  7 10  1  0  0  0  0
 10 11  1  0  0  0  0
 10 12  1  0  0  0  0
 10 13  1  0  0  0  0
 13 14  1  0  0  0  0
 13 15  1  0  0  0  0
 15 16  1  0  0  0  0
 15 17  1  0  0  0  0
  1 18  1  0  0  0  0
 15 18  1  0  0  0  0
 18 19  1  0  0  0  0
 18 20  1  0  0  0  0
 13 21  1  0  0  0  0
 21 22  1  0  0  0  0
M  END
> <VConfSearch Rank>
292

> <Conf_Id>
95

> <Delta U+W>
-2.289

> <U+W>
4.134

> <U>
6.373

> <W>
-2.240

> <W(PB)>
-4.254

> <W(SA)>
2.015

> <Valence>
12.093

> <Coulomb>
-8.058

> <VdW>
2.339

> <VdW6>
-9.683

> <VdW12>
12.022

> <Bond>
0.268

> <Angle>
3.005

> <Pdih>
8.820

> <Idih>
0.000

> <Tether>
0.000

$$$$
VeraChem MOL file


 22 22  0  0  0  0  0  0  0  0999 V2000     
   18.8591   18.2887   23.3790 C   0  0  0  0  0  0  0  0  0  0  0  0
   18.6834   17.2803   22.9801 H   0  0  0  0  0  0  0  0  0  0  0  0
   18.2368   18.3648   24.2810 H   0  0  0  0  0  0  0  0  0  0  0  0
   18.3574   19.3158   22.3361 C   0  0  0  0  0  0  0  0  0  0  0  0
   18.5606   18.9391   21.3245 H   0  0  0  0  0  0  0  0  0  0  0  0
   17.2630   19.3715   22.4140 H   0  0  0  0  0  0  0  0  0  0  0  0
   18.9443   20.7390   22.4831 C   0  0  0  0  0  0  0  0  0  0  0  0
   19.0595   21.0094   23.5416 H   0  0  0  0  0  0  0  0  0  0  0  0
   18.2203   21.4506   22.0636 H   0  0  0  0  0  0  0  0  0  0  0  0
   20.2794   20.9168   21.7169 C   0  0  0  0  0  0  0  0  0  0  0  0
   20.1530   20.5578   20.6874 H   0  0  0  0  0  0  0  0  0  0  0  0
   20.4921   21.9899   21.6268 H   0  0  0  0  0  0  0  0  0  0  0  0
   21.5169   20.2251   22.3334 C   0  0  0  0  0  0  0  0  0  0  0  0
   22.3246   20.2986   21.5909 H   0  0  0  0  0  0  0  0  0  0  0  0
   21.3355   18.7215   22.6599 C   0  0  0  0  0  0  0  0  0  0  0  0
   21.0484   18.1733   21.7536 H   0  0  0  0  0  0  0  0  0  0  0  0
   22.3203   18.3310   22.9472 H   0  0  0  0  0  0  0  0  0  0  0  0
   20.3406   18.4114   23.8085 C   0  0  0  0  0  0  0  0  0  0  0  0
   20.6337   17.4652   24.2830 H   0  0  0  0  0  0  0  0  0  0  0  0
   20.4315   19.1708   24.5963 H   0  0  0  0  0  0  0  0  0  0  0  0
   21.9216   20.9341   23.5007 O   0  0  0  0  0  0  0  0  0  0  0  0
   22.0044   21.8750   23.2439 H   0  0  0  0  0  0  0  0  0  0  0  0
  1  2  1  0  0  0  0
  1  3  1  0  0  0  0
  1  4  1  0  0  0  0
  4  5  1  0  0  0  0
  4  6  1  0  0  0  0
  4  7  1  0  0  0  0
  7  8  1  0  0  0  0
  7  9  1  0  0  0  0
  7 10  1  0  0  0  0
 10 11  1  0  0  0  0
 10 12  1  0  0  0  0
 10 13  1  0  0  0  0
 13 14  1  0  0  0  0
 13 15  1  0  0  0  0
 15 16  1  0  0  0  0
 15 17  1  0  0  0  0
  1 18  1  0  0  0  0
 15 18  1  0  0  0  0
 18 19  1  0  0  0  0
 18 20  1  0  0  0  0
 13 21  1  0  0  0  0
 21 22  1  0  0  0  0
M  END
> <VConfSearch Rank>
293

> <Conf_Id>
41

> <Delta U+W>
-2.114

> <U+W>
4.310

> <U>
6.598

> <W>
-2.289

> <W(PB)>
-4.294

> <W(SA)>
2.005

> <Valence>
12.082

> <Coulomb>
-7.801

> <VdW>
2.317

> <VdW6>
-9.658

> <VdW12>
11.975

> <Bond>
0.267

> <Angle>
3.051

> <Pdih>
8.764

> <Idih>
0.000

> <Tether>
0.000

$$$$
VeraChem MOL file


 22 22  0  0  0  0  0  0  0  0999 V2000     
   18.8163   19.1823   23.7343 C   0  0  0  0  0  0  0  0  0  0  0  0
   17.8371   19.0574   24.2161 H   0  0  0  0  0  0  0  0  0  0  0  0
   19.4951   18.4734   24.2281 H   0  0  0  0  0  0  0  0  0  0  0  0
   19.2788   20.6374   23.9714 C   0  0  0  0  0  0  0  0  0  0  0  0
   18.6246   21.3256   23.4193 H   0  0  0  0  0  0  0  0  0  0  0  0
   19.1428   20.8800   25.0341 H   0  0  0  0  0  0  0  0  0  0  0  0
   20.7513   20.9144   23.5970 C   0  0  0  0  0  0  0  0  0  0  0  0
   21.4120   20.3831   24.2948 H   0  0  0  0  0  0  0  0  0  0  0  0
   20.9472   21.9824   23.7621 H   0  0  0  0  0  0  0  0  0  0  0  0
   21.1363   20.5679   22.1331 C   0  0  0  0  0  0  0  0  0  0  0  0
   20.4292   21.0362   21.4367 H   0  0  0  0  0  0  0  0  0  0  0  0
   22.1083   21.0338   21.9262 H   0  0  0  0  0  0  0  0  0  0  0  0
   21.2748   19.0585   21.8066 C   0  0  0  0  0  0  0  0  0  0  0  0
   21.8451   18.9898   20.8689 H   0  0  0  0  0  0  0  0  0  0  0  0
   19.9477   18.2947   21.5610 C   0  0  0  0  0  0  0  0  0  0  0  0
   19.7666   18.2698   20.4785 H   0  0  0  0  0  0  0  0  0  0  0  0
   20.0793   17.2451   21.8551 H   0  0  0  0  0  0  0  0  0  0  0  0
   18.6649   18.8409   22.2355 C   0  0  0  0  0  0  0  0  0  0  0  0
   18.3019   19.7215   21.6884 H   0  0  0  0  0  0  0  0  0  0  0  0
   17.8787   18.0817   22.1259 H   0  0  0  0  0  0  0  0  0  0  0  0
   22.0288   18.3969   22.8189 O   0  0  0  0  0  0  0  0  0  0  0  0
   22.1169   17.4627   22.5407 H   0  0  0  0  0  0  0  0  0  0  0  0
  1  2  1  0  0  0  0
  1  3  1  0  0  0  0
  1  4  1  0  0  0  0
  4  5  1  0  0  0  0
  4  6  1  0  0  0  0
  4  7  1  0  0  0  0
  7  8  1  0  0  0  0
  7  9  1  0  0  0  0
  7 10  1  0  0  0  0
 10 11  1  0  0  0  0
 10 12  1  0  0  0  0
 10 13  1  0  0  0  0
 13 14  1  0  0  0  0
 13 15  1  0  0  0  0
 15 16  1  0  0  0  0
 15 17  1  0  0  0  0
  1 18  1  0  0  0  0
 15 18  1  0  0  0  0
 18 19  1  0  0  0  0
 18 20  1  0  0  0  0
 13 21  1  0  0  0  0
 21 22  1  0  0  0  0
M  END
> <VConfSearch Rank>
294

> <Conf_Id>
104

> <Delta U+W>
-1.172

> <U+W>
5.252

> <U>
7.482

> <W>
-2.230

> <W(PB)>
-4.220

> <W(SA)>
1.990

> <Valence>
12.309

> <Coulomb>
-7.084

> <VdW>
2.258

> <VdW6>
-9.770

> <VdW12>
12.028

> <Bond>
0.284

> <Angle>
3.491

> <Pdih>
8.535

> <Idih>
0.000

> <Tether>
0.000

$$$$
VeraChem MOL file


 22 22  0  0  0  0  0  0  0  0999 V2000     
   20.8454   20.0587   24.0376 C   0  0  0  0  0  0  0  0  0  0  0  0
   19.9131   20.1720   24.6072 H   0  0  0  0  0  0  0  0  0  0  0  0
   21.6545   20.3490   24.7216 H   0  0  0  0  0  0  0  0  0  0  0  0
   20.8765   21.0251   22.8315 C   0  0  0  0  0  0  0  0  0  0  0  0
   21.1539   22.0256   23.1913 H   0  0  0  0  0  0  0  0  0  0  0  0
   21.6878   20.7328   22.1521 H   0  0  0  0  0  0  0  0  0  0  0  0
   19.5487   21.1585   22.0435 C   0  0  0  0  0  0  0  0  0  0  0  0
   19.7837   21.4707   21.0165 H   0  0  0  0  0  0  0  0  0  0  0  0
   18.9707   21.9873   22.4745 H   0  0  0  0  0  0  0  0  0  0  0  0
   18.6202   19.9147   21.9980 C   0  0  0  0  0  0  0  0  0  0  0  0
   18.0667   19.8454   22.9434 H   0  0  0  0  0  0  0  0  0  0  0  0
   17.8562   20.0901   21.2296 H   0  0  0  0  0  0  0  0  0  0  0  0
   19.2856   18.5490   21.7112 C   0  0  0  0  0  0  0  0  0  0  0  0
   18.5035   17.8787   21.3266 H   0  0  0  0  0  0  0  0  0  0  0  0
   19.8601   17.8826   22.9816 C   0  0  0  0  0  0  0  0  0  0  0  0
   19.0571   17.7915   23.7246 H   0  0  0  0  0  0  0  0  0  0  0  0
   20.1464   16.8535   22.7284 H   0  0  0  0  0  0  0  0  0  0  0  0
   21.0757   18.5814   23.6395 C   0  0  0  0  0  0  0  0  0  0  0  0
   21.3384   18.0173   24.5448 H   0  0  0  0  0  0  0  0  0  0  0  0
   21.9509   18.5052   22.9802 H   0  0  0  0  0  0  0  0  0  0  0  0
   20.3005   18.6854   20.7286 O   0  0  0  0  0  0  0  0  0  0  0  0
   20.9083   19.3529   21.1045 H   0  0  0  0  0  0  0  0  0  0  0  0
  1  2  1  0  0  0  0
  1  3  1  0  0  0  0
  1  4  1  0  0  0  0
  4  5  1  0  0  0  0
  4  6  1  0  0  0  0
  4  7  1  0  0  0  0
  7  8  1  0  0  0  0
  7  9  1  0  0  0  0
  7 10  1  0  0  0  0
 10 11  1  0  0  0  0
 10 12  1  0  0  0  0
 10 13  1  0  0  0  0
 13 14  1  0  0  0  0
 13 15  1  0  0  0  0
 15 16  1  0  0  0  0
 15 17  1  0  0  0  0
  1 18  1  0  0  0  0
 15 18  1  0  0  0  0
 18 19  1  0  0  0  0
 18 20  1  0  0  0  0
 13 21  1  0  0  0  0
 21 22  1  0  0  0  0
M  END
> <VConfSearch Rank>
295

> <Conf_Id>
99

> <Delta U+W>
-3.852

> <U+W>
2.572

> <U>
3.922

> <W>
-1.350

> <W(PB)>
-3.345

> <W(SA)>
1.995

> <Valence>
12.571

> <Coulomb>
-10.581

> <VdW>
1.932

> <VdW6>
-10.483

> <VdW12>
12.415

> <Bond>
0.268

> <Angle>
3.728

> <Pdih>
8.575

> <Idih>
0.000

> <Tether>
0.000

$$$$
VeraChem MOL file


 22 22  0  0  0  0  0  0  0  0999 V2000     
   20.0966   17.9944   22.2025 C   0  0  0  0  0  0  0  0  0  0  0  0
   19.8441   16.9357   22.3534 H   0  0  0  0  0  0  0  0  0  0  0  0
   20.6224   18.0255   21.2389 H   0  0  0  0  0  0  0  0  0  0  0  0
   21.0555   18.4248   23.3510 C   0  0  0  0  0  0  0  0  0  0  0  0
   21.2182   17.5524   23.9989 H   0  0  0  0  0  0  0  0  0  0  0  0
   22.0474   18.6653   22.9457 H   0  0  0  0  0  0  0  0  0  0  0  0
   20.5634   19.5916   24.2450 C   0  0  0  0  0  0  0  0  0  0  0  0
   21.2271   19.6633   25.1174 H   0  0  0  0  0  0  0  0  0  0  0  0
   19.5804   19.3465   24.6660 H   0  0  0  0  0  0  0  0  0  0  0  0
   20.5113   20.9909   23.5712 C   0  0  0  0  0  0  0  0  0  0  0  0
   19.8075   21.6169   24.1347 H   0  0  0  0  0  0  0  0  0  0  0  0
   21.4907   21.4721   23.6949 H   0  0  0  0  0  0  0  0  0  0  0  0
   20.1407   21.0670   22.0695 C   0  0  0  0  0  0  0  0  0  0  0  0
   19.9366   22.1235   21.8440 H   0  0  0  0  0  0  0  0  0  0  0  0
   18.8916   20.2638   21.6306 C   0  0  0  0  0  0  0  0  0  0  0  0
   17.9963   20.8040   21.9645 H   0  0  0  0  0  0  0  0  0  0  0  0
   18.8520   20.2873   20.5333 H   0  0  0  0  0  0  0  0  0  0  0  0
   18.7682   18.7859   22.0946 C   0  0  0  0  0  0  0  0  0  0  0  0
   18.2319   18.7414   23.0506 H   0  0  0  0  0  0  0  0  0  0  0  0
   18.1111   18.2648   21.3850 H   0  0  0  0  0  0  0  0  0  0  0  0
   21.2565   20.6790   21.2836 O   0  0  0  0  0  0  0  0  0  0  0  0
   21.3963   19.7398   21.5187 H   0  0  0  0  0  0  0  0  0  0  0  0
  1  2  1  0  0  0  0
  1  3  1  0  0  0  0
  1  4  1  0  0  0  0
  4  5  1  0  0  0  0
  4  6  1  0  0  0  0
  4  7  1  0  0  0  0
  7  8  1  0  0  0  0
  7  9  1  0  0  0  0
  7 10  1  0  0  0  0
 10 11  1  0  0  0  0
 10 12  1  0  0  0  0
 10 13  1  0  0  0  0
 13 14  1  0  0  0  0
 13 15  1  0  0  0  0
 15 16  1  0  0  0  0
 15 17  1  0  0  0  0
  1 18  1  0  0  0  0
 15 18  1  0  0  0  0
 18 19  1  0  0  0  0
 18 20  1  0  0  0  0
 13 21  1  0  0  0  0
 21 22  1  0  0  0  0
M  END
> <VConfSearch Rank>
296

> <Conf_Id>
98

> <Delta U+W>
0.930

> <U+W>
7.353

> <U>
8.455

> <W>
-1.102

> <W(PB)>
-3.101

> <W(SA)>
2.000

> <Valence>
15.601

> <Coulomb>
-10.573

> <VdW>
3.427

> <VdW6>
-11.360

> <VdW12>
14.787

> <Bond>
0.471

> <Angle>
5.445

> <Pdih>
9.685

> <Idih>
0.000

> <Tether>
0.000

$$$$
VeraChem MOL file


 22 22  0  0  0  0  0  0  0  0999 V2000     
   20.6626   19.2526   21.0877 C   0  0  0  0  0  0  0  0  0  0  0  0
   20.3492   18.2070   21.2028 H   0  0  0  0  0  0  0  0  0  0  0  0
   21.0801   19.3151   20.0735 H   0  0  0  0  0  0  0  0  0  0  0  0
   21.7862   19.5777   22.1046 C   0  0  0  0  0  0  0  0  0  0  0  0
   22.6203   18.8907   21.9066 H   0  0  0  0  0  0  0  0  0  0  0  0
   22.1781   20.5852   21.9098 H   0  0  0  0  0  0  0  0  0  0  0  0
   21.4080   19.4586   23.6070 C   0  0  0  0  0  0  0  0  0  0  0  0
   21.2545   20.4569   24.0368 H   0  0  0  0  0  0  0  0  0  0  0  0
   22.2727   19.0486   24.1464 H   0  0  0  0  0  0  0  0  0  0  0  0
   20.1703   18.5714   23.9047 C   0  0  0  0  0  0  0  0  0  0  0  0
   20.3011   17.5964   23.4190 H   0  0  0  0  0  0  0  0  0  0  0  0
   20.1551   18.3503   24.9805 H   0  0  0  0  0  0  0  0  0  0  0  0
   18.7919   19.1668   23.4931 C   0  0  0  0  0  0  0  0  0  0  0  0
   18.2246   18.3807   22.9742 H   0  0  0  0  0  0  0  0  0  0  0  0
   18.8400   20.4137   22.5749 C   0  0  0  0  0  0  0  0  0  0  0  0
   17.8224   20.8082   22.4574 H   0  0  0  0  0  0  0  0  0  0  0  0
   19.4011   21.2153   23.0701 H   0  0  0  0  0  0  0  0  0  0  0  0
   19.4224   20.1742   21.1595 C   0  0  0  0  0  0  0  0  0  0  0  0
   18.6392   19.7433   20.5211 H   0  0  0  0  0  0  0  0  0  0  0  0
   19.6709   21.1479   20.7159 H   0  0  0  0  0  0  0  0  0  0  0  0
   18.0888   19.5342   24.6745 O   0  0  0  0  0  0  0  0  0  0  0  0
   17.2059   19.8509   24.3910 H   0  0  0  0  0  0  0  0  0  0  0  0
  1  2  1  0  0  0  0
  1  3  1  0  0  0  0
  1  4  1  0  0  0  0
  4  5  1  0  0  0  0
  4  6  1  0  0  0  0
  4  7  1  0  0  0  0
  7  8  1  0  0  0  0
  7  9  1  0  0  0  0
  7 10  1  0  0  0  0
 10 11  1  0  0  0  0
 10 12  1  0  0  0  0
 10 13  1  0  0  0  0
 13 14  1  0  0  0  0
 13 15  1  0  0  0  0
 15 16  1  0  0  0  0
 15 17  1  0  0  0  0
  1 18  1  0  0  0  0
 15 18  1  0  0  0  0
 18 19  1  0  0  0  0
 18 20  1  0  0  0  0
 13 21  1  0  0  0  0
 21 22  1  0  0  0  0
M  END
> <VConfSearch Rank>
297

> <Conf_Id>
141

> <Delta U+W>
0.000

> <U+W>
6.423

> <U>
8.781

> <W>
-2.358

> <W(PB)>
-4.373

> <W(SA)>
2.015

> <Valence>
13.328

> <Coulomb>
-8.387

> <VdW>
3.840

> <VdW6>
-9.744

> <VdW12>
13.584

> <Bond>
0.436

> <Angle>
3.478

> <Pdih>
9.415

> <Idih>
0.000

> <Tether>
0.000

$$$$
VeraChem MOL file


 22 22  0  0  0  0  0  0  0  0999 V2000     
   19.9779   20.8936   23.8472 C   0  0  0  0  0  0  0  0  0  0  0  0
   18.9958   20.5399   24.1892 H   0  0  0  0  0  0  0  0  0  0  0  0
   20.2498   21.7248   24.5121 H   0  0  0  0  0  0  0  0  0  0  0  0
   19.8938   21.4530   22.4065 C   0  0  0  0  0  0  0  0  0  0  0  0
   19.3070   22.3815   22.4253 H   0  0  0  0  0  0  0  0  0  0  0  0
   20.8985   21.7419   22.0688 H   0  0  0  0  0  0  0  0  0  0  0  0
   19.2584   20.5022   21.3660 C   0  0  0  0  0  0  0  0  0  0  0  0
   19.3188   20.9836   20.3804 H   0  0  0  0  0  0  0  0  0  0  0  0
   18.1866   20.3910   21.5800 H   0  0  0  0  0  0  0  0  0  0  0  0
   19.9136   19.1024   21.2732 C   0  0  0  0  0  0  0  0  0  0  0  0
   19.5368   18.6193   20.3621 H   0  0  0  0  0  0  0  0  0  0  0  0
   21.0002   19.1911   21.1449 H   0  0  0  0  0  0  0  0  0  0  0  0
   19.5835   18.2075   22.4889 C   0  0  0  0  0  0  0  0  0  0  0  0
   18.5728   18.4619   22.8392 H   0  0  0  0  0  0  0  0  0  0  0  0
   20.5600   18.3542   23.6780 C   0  0  0  0  0  0  0  0  0  0  0  0
   20.0646   17.9415   24.5664 H   0  0  0  0  0  0  0  0  0  0  0  0
   21.4414   17.7223   23.5045 H   0  0  0  0  0  0  0  0  0  0  0  0
   21.0485   19.7882   24.0020 C   0  0  0  0  0  0  0  0  0  0  0  0
   21.4210   19.7945   25.0355 H   0  0  0  0  0  0  0  0  0  0  0  0
   21.9173   20.0309   23.3750 H   0  0  0  0  0  0  0  0  0  0  0  0
   19.5959   16.8472   22.0735 O   0  0  0  0  0  0  0  0  0  0  0  0
   18.9168   16.7600   21.3722 H   0  0  0  0  0  0  0  0  0  0  0  0
  1  2  1  0  0  0  0
  1  3  1  0  0  0  0
  1  4  1  0  0  0  0
  4  5  1  0  0  0  0
  4  6  1  0  0  0  0
  4  7  1  0  0  0  0
  7  8  1  0  0  0  0
  7  9  1  0  0  0  0
  7 10  1  0  0  0  0
 10 11  1  0  0  0  0
 10 12  1  0  0  0  0
 10 13  1  0  0  0  0
 13 14  1  0  0  0  0
 13 15  1  0  0  0  0
 15 16  1  0  0  0  0
 15 17  1  0  0  0  0
  1 18  1  0  0  0  0
 15 18  1  0  0  0  0
 18 19  1  0  0  0  0
 18 20  1  0  0  0  0
 13 21  1  0  0  0  0
 21 22  1  0  0  0  0
M  END
> <VConfSearch Rank>
298

> <Conf_Id>
144

> <Delta U+W>
-3.291

> <U+W>
3.132

> <U>
5.411

> <W>
-2.279

> <W(PB)>
-4.300

> <W(SA)>
2.021

> <Valence>
11.909

> <Coulomb>
-8.733

> <VdW>
2.236

> <VdW6>
-8.936

> <VdW12>
11.172

> <Bond>
0.223

> <Angle>
2.457

> <Pdih>
9.228

> <Idih>
0.000

> <Tether>
0.000

$$$$
VeraChem MOL file


 22 22  0  0  0  0  0  0  0  0999 V2000     
   18.4721   19.8461   21.7798 C   0  0  0  0  0  0  0  0  0  0  0  0
   17.5216   20.2586   21.4149 H   0  0  0  0  0  0  0  0  0  0  0  0
   18.6912   18.9783   21.1430 H   0  0  0  0  0  0  0  0  0  0  0  0
   18.2723   19.4136   23.2513 C   0  0  0  0  0  0  0  0  0  0  0  0
   18.3808   20.2880   23.9073 H   0  0  0  0  0  0  0  0  0  0  0  0
   17.2359   19.0745   23.3844 H   0  0  0  0  0  0  0  0  0  0  0  0
   19.2101   18.2814   23.7357 C   0  0  0  0  0  0  0  0  0  0  0  0
   18.7836   17.3131   23.4402 H   0  0  0  0  0  0  0  0  0  0  0  0
   19.2108   18.2841   24.8343 H   0  0  0  0  0  0  0  0  0  0  0  0
   20.6729   18.3381   23.2307 C   0  0  0  0  0  0  0  0  0  0  0  0
   21.2810   17.7053   23.8912 H   0  0  0  0  0  0  0  0  0  0  0  0
   20.7298   17.8731   22.2380 H   0  0  0  0  0  0  0  0  0  0  0  0
   21.2856   19.7552   23.1668 C   0  0  0  0  0  0  0  0  0  0  0  0
   20.8881   20.3656   23.9901 H   0  0  0  0  0  0  0  0  0  0  0  0
   21.0102   20.4597   21.8190 C   0  0  0  0  0  0  0  0  0  0  0  0
   21.6703   21.3336   21.7376 H   0  0  0  0  0  0  0  0  0  0  0  0
   21.2879   19.7919   20.9931 H   0  0  0  0  0  0  0  0  0  0  0  0
   19.5539   20.9405   21.6147 C   0  0  0  0  0  0  0  0  0  0  0  0
   19.3436   21.7685   22.3054 H   0  0  0  0  0  0  0  0  0  0  0  0
   19.4712   21.3650   20.6048 H   0  0  0  0  0  0  0  0  0  0  0  0
   22.6941   19.6402   23.3192 O   0  0  0  0  0  0  0  0  0  0  0  0
   23.0092   19.0910   22.5720 H   0  0  0  0  0  0  0  0  0  0  0  0
  1  2  1  0  0  0  0
  1  3  1  0  0  0  0
  1  4  1  0  0  0  0
  4  5  1  0  0  0  0
  4  6  1  0  0  0  0
  4  7  1  0  0  0  0
  7  8  1  0  0  0  0
  7  9  1  0  0  0  0
  7 10  1  0  0  0  0
 10 11  1  0  0  0  0
 10 12  1  0  0  0  0
 10 13  1  0  0  0  0
 13 14  1  0  0  0  0
 13 15  1  0  0  0  0
 15 16  1  0  0  0  0
 15 17  1  0  0  0  0
  1 18  1  0  0  0  0
 15 18  1  0  0  0  0
 18 19  1  0  0  0  0
 18 20  1  0  0  0  0
 13 21  1  0  0  0  0
 21 22  1  0  0  0  0
M  END
> <VConfSearch Rank>
299

> <Conf_Id>
76

> <Delta U+W>
-3.175

> <U+W>
3.248

> <U>
5.336

> <W>
-2.088

> <W(PB)>
-4.098

> <W(SA)>
2.010

> <Valence>
12.390

> <Coulomb>
-9.270

> <VdW>
2.216

> <VdW6>
-8.967

> <VdW12>
11.183

> <Bond>
0.218

> <Angle>
2.426

> <Pdih>
9.745

> <Idih>
0.000

> <Tether>
0.000

$$$$
VeraChem MOL file


 22 22  0  0  0  0  0  0  0  0999 V2000     
   20.4793   19.3322   24.5037 C   0  0  0  0  0  0  0  0  0  0  0  0
   19.7880   19.4012   25.3547 H   0  0  0  0  0  0  0  0  0  0  0  0
   21.4442   19.0226   24.9279 H   0  0  0  0  0  0  0  0  0  0  0  0
   20.6318   20.7438   23.8883 C   0  0  0  0  0  0  0  0  0  0  0  0
   19.6694   21.2709   23.9371 H   0  0  0  0  0  0  0  0  0  0  0  0
   21.3150   21.3203   24.5267 H   0  0  0  0  0  0  0  0  0  0  0  0
   21.1598   20.7704   22.4350 C   0  0  0  0  0  0  0  0  0  0  0  0
   21.9175   19.9908   22.2772 H   0  0  0  0  0  0  0  0  0  0  0  0
   21.6714   21.7291   22.2756 H   0  0  0  0  0  0  0  0  0  0  0  0
   20.0271   20.6593   21.3830 C   0  0  0  0  0  0  0  0  0  0  0  0
   19.2512   21.4020   21.6084 H   0  0  0  0  0  0  0  0  0  0  0  0
   20.4309   20.9433   20.4023 H   0  0  0  0  0  0  0  0  0  0  0  0
   19.3613   19.2717   21.2401 C   0  0  0  0  0  0  0  0  0  0  0  0
   18.4768   19.4087   20.6014 H   0  0  0  0  0  0  0  0  0  0  0  0
   18.8723   18.6357   22.5656 C   0  0  0  0  0  0  0  0  0  0  0  0
   18.1696   19.3139   23.0667 H   0  0  0  0  0  0  0  0  0  0  0  0
   18.2887   17.7423   22.3085 H   0  0  0  0  0  0  0  0  0  0  0  0
   19.9957   18.2150   23.5486 C   0  0  0  0  0  0  0  0  0  0  0  0
   19.6334   17.3797   24.1629 H   0  0  0  0  0  0  0  0  0  0  0  0
   20.8534   17.8155   22.9917 H   0  0  0  0  0  0  0  0  0  0  0  0
   20.2568   18.3873   20.5738 O   0  0  0  0  0  0  0  0  0  0  0  0
   19.8189   17.5120   20.5510 H   0  0  0  0  0  0  0  0  0  0  0  0
  1  2  1  0  0  0  0
  1  3  1  0  0  0  0
  1  4  1  0  0  0  0
  4  5  1  0  0  0  0
  4  6  1  0  0  0  0
  4  7  1  0  0  0  0
  7  8  1  0  0  0  0
  7  9  1  0  0  0  0
  7 10  1  0  0  0  0
 10 11  1  0  0  0  0
 10 12  1  0  0  0  0
 10 13  1  0  0  0  0
 13 14  1  0  0  0  0
 13 15  1  0  0  0  0
 15 16  1  0  0  0  0
 15 17  1  0  0  0  0
  1 18  1  0  0  0  0
 15 18  1  0  0  0  0
 18 19  1  0  0  0  0
 18 20  1  0  0  0  0
 13 21  1  0  0  0  0
 21 22  1  0  0  0  0
M  END
> <VConfSearch Rank>
300

> <Conf_Id>
95

> <Delta U+W>
-2.289

> <U+W>
4.134

> <U>
6.373

> <W>
-2.240

> <W(PB)>
-4.254

> <W(SA)>
2.015

> <Valence>
12.093

> <Coulomb>
-8.058

> <VdW>
2.339

> <VdW6>
-9.683

> <VdW12>
12.022

> <Bond>
0.268

> <Angle>
3.005

> <Pdih>
8.820

> <Idih>
0.000

> <Tether>
0.000

$$$$
VeraChem MOL file


 22 22  0  0  0  0  0  0  0  0999 V2000     
   20.4491   20.0366   24.5299 C   0  0  0  0  0  0  0  0  0  0  0  0
   21.4107   20.3572   24.9533 H   0  0  0  0  0  0  0  0  0  0  0  0
   19.7402   20.0336   25.3691 H   0  0  0  0  0  0  0  0  0  0  0  0
   20.6098   18.5899   24.0048 C   0  0  0  0  0  0  0  0  0  0  0  0
   21.6156   18.4639   23.5817 H   0  0  0  0  0  0  0  0  0  0  0  0
   20.5667   17.9096   24.8663 H   0  0  0  0  0  0  0  0  0  0  0  0
   19.5545   18.1495   22.9638 C   0  0  0  0  0  0  0  0  0  0  0  0
   18.5660   18.5624   23.2072 H   0  0  0  0  0  0  0  0  0  0  0  0
   19.4521   17.0576   23.0241 H   0  0  0  0  0  0  0  0  0  0  0  0
   19.9622   18.5062   21.5120 C   0  0  0  0  0  0  0  0  0  0  0  0
   20.9861   18.1549   21.3301 H   0  0  0  0  0  0  0  0  0  0  0  0
   19.3310   17.9342   20.8196 H   0  0  0  0  0  0  0  0  0  0  0  0
   19.8766   20.0010   21.1272 C   0  0  0  0  0  0  0  0  0  0  0  0
   20.3585   20.1040   20.1442 H   0  0  0  0  0  0  0  0  0  0  0  0
   20.6024   20.9713   22.0927 C   0  0  0  0  0  0  0  0  0  0  0  0
   21.6614   20.6953   22.1752 H   0  0  0  0  0  0  0  0  0  0  0  0
   20.5870   21.9648   21.6262 H   0  0  0  0  0  0  0  0  0  0  0  0
   19.9712   21.0920   23.5042 C   0  0  0  0  0  0  0  0  0  0  0  0
   20.2029   22.0859   23.9102 H   0  0  0  0  0  0  0  0  0  0  0  0
   18.8764   21.0585   23.4276 H   0  0  0  0  0  0  0  0  0  0  0  0
   18.5093   20.3765   20.9925 O   0  0  0  0  0  0  0  0  0  0  0  0
   18.0966   19.7249   20.3896 H   0  0  0  0  0  0  0  0  0  0  0  0
  1  2  1  0  0  0  0
  1  3  1  0  0  0  0
  1  4  1  0  0  0  0
  4  5  1  0  0  0  0
  4  6  1  0  0  0  0
  4  7  1  0  0  0  0
  7  8  1  0  0  0  0
  7  9  1  0  0  0  0
  7 10  1  0  0  0  0
 10 11  1  0  0  0  0
 10 12  1  0  0  0  0
 10 13  1  0  0  0  0
 13 14  1  0  0  0  0
 13 15  1  0  0  0  0
 15 16  1  0  0  0  0
 15 17  1  0  0  0  0
  1 18  1  0  0  0  0
 15 18  1  0  0  0  0
 18 19  1  0  0  0  0
 18 20  1  0  0  0  0
 13 21  1  0  0  0  0
 21 22  1  0  0  0  0
M  END
> <VConfSearch Rank>
301

> <Conf_Id>
41

> <Delta U+W>
-2.114

> <U+W>
4.310

> <U>
6.598

> <W>
-2.289

> <W(PB)>
-4.294

> <W(SA)>
2.005

> <Valence>
12.082

> <Coulomb>
-7.801

> <VdW>
2.317

> <VdW6>
-9.658

> <VdW12>
11.975

> <Bond>
0.267

> <Angle>
3.051

> <Pdih>
8.764

> <Idih>
0.000

> <Tether>
0.000

$$$$
VeraChem MOL file


 22 22  0  0  0  0  0  0  0  0999 V2000     
   19.9632   17.8912   22.9377 C   0  0  0  0  0  0  0  0  0  0  0  0
   19.8643   16.8032   22.8235 H   0  0  0  0  0  0  0  0  0  0  0  0
   20.3951   18.0583   23.9340 H   0  0  0  0  0  0  0  0  0  0  0  0
   18.5495   18.5078   22.8446 C   0  0  0  0  0  0  0  0  0  0  0  0
   18.1613   18.3848   21.8244 H   0  0  0  0  0  0  0  0  0  0  0  0
   17.8738   17.9357   23.4949 H   0  0  0  0  0  0  0  0  0  0  0  0
   18.4674   19.9954   23.2513 C   0  0  0  0  0  0  0  0  0  0  0  0
   18.6513   20.0901   24.3298 H   0  0  0  0  0  0  0  0  0  0  0  0
   17.4329   20.3312   23.0990 H   0  0  0  0  0  0  0  0  0  0  0  0
   19.4103   20.9471   22.4662 C   0  0  0  0  0  0  0  0  0  0  0  0
   19.2825   20.7977   21.3866 H   0  0  0  0  0  0  0  0  0  0  0  0
   19.0832   21.9759   22.6637 H   0  0  0  0  0  0  0  0  0  0  0  0
   20.9145   20.8677   22.8339 C   0  0  0  0  0  0  0  0  0  0  0  0
   21.3818   21.7862   22.4500 H   0  0  0  0  0  0  0  0  0  0  0  0
   21.7031   19.6885   22.2072 C   0  0  0  0  0  0  0  0  0  0  0  0
   22.1890   20.0538   21.2932 H   0  0  0  0  0  0  0  0  0  0  0  0
   22.5257   19.4109   22.8794 H   0  0  0  0  0  0  0  0  0  0  0  0
   20.9138   18.4088   21.8357 C   0  0  0  0  0  0  0  0  0  0  0  0
   20.3512   18.5740   20.9069 H   0  0  0  0  0  0  0  0  0  0  0  0
   21.6426   17.6208   21.6021 H   0  0  0  0  0  0  0  0  0  0  0  0
   21.0818   20.8583   24.2491 O   0  0  0  0  0  0  0  0  0  0  0  0
   22.0454   20.8481   24.4199 H   0  0  0  0  0  0  0  0  0  0  0  0
  1  2  1  0  0  0  0
  1  3  1  0  0  0  0
  1  4  1  0  0  0  0
  4  5  1  0  0  0  0
  4  6  1  0  0  0  0
  4  7  1  0  0  0  0
  7  8  1  0  0  0  0
  7  9  1  0  0  0  0
  7 10  1  0  0  0  0
 10 11  1  0  0  0  0
 10 12  1  0  0  0  0
 10 13  1  0  0  0  0
 13 14  1  0  0  0  0
 13 15  1  0  0  0  0
 15 16  1  0  0  0  0
 15 17  1  0  0  0  0
  1 18  1  0  0  0  0
 15 18  1  0  0  0  0
 18 19  1  0  0  0  0
 18 20  1  0  0  0  0
 13 21  1  0  0  0  0
 21 22  1  0  0  0  0
M  END
> <VConfSearch Rank>
302

> <Conf_Id>
104

> <Delta U+W>
-1.172

> <U+W>
5.252

> <U>
7.482

> <W>
-2.230

> <W(PB)>
-4.220

> <W(SA)>
1.990

> <Valence>
12.309

> <Coulomb>
-7.084

> <VdW>
2.258

> <VdW6>
-9.770

> <VdW12>
12.028

> <Bond>
0.284

> <Angle>
3.491

> <Pdih>
8.535

> <Idih>
0.000

> <Tether>
0.000

$$$$
VeraChem MOL file


 22 22  0  0  0  0  0  0  0  0999 V2000     
   18.6795   20.3491   22.2111 C   0  0  0  0  0  0  0  0  0  0  0  0
   18.4073   20.6115   23.2424 H   0  0  0  0  0  0  0  0  0  0  0  0
   17.8663   20.7296   21.5779 H   0  0  0  0  0  0  0  0  0  0  0  0
   18.7417   18.8152   22.0296 C   0  0  0  0  0  0  0  0  0  0  0  0
   17.7176   18.4343   21.9141 H   0  0  0  0  0  0  0  0  0  0  0  0
   19.2403   18.5814   21.0799 H   0  0  0  0  0  0  0  0  0  0  0  0
   19.4100   18.0288   23.1857 C   0  0  0  0  0  0  0  0  0  0  0  0
   19.7993   17.0833   22.7836 H   0  0  0  0  0  0  0  0  0  0  0  0
   18.6316   17.7406   23.9053 H   0  0  0  0  0  0  0  0  0  0  0  0
   20.5359   18.7476   23.9776 C   0  0  0  0  0  0  0  0  0  0  0  0
   20.0819   19.4424   24.6960 H   0  0  0  0  0  0  0  0  0  0  0  0
   21.0516   17.9968   24.5901 H   0  0  0  0  0  0  0  0  0  0  0  0
   21.5999   19.5095   23.1546 C   0  0  0  0  0  0  0  0  0  0  0  0
   22.4942   19.6068   23.7868 H   0  0  0  0  0  0  0  0  0  0  0  0
   21.1578   20.9428   22.7825 C   0  0  0  0  0  0  0  0  0  0  0  0
   20.8991   21.4812   23.7035 H   0  0  0  0  0  0  0  0  0  0  0  0
   22.0252   21.4709   22.3653 H   0  0  0  0  0  0  0  0  0  0  0  0
   19.9819   21.0659   21.7821 C   0  0  0  0  0  0  0  0  0  0  0  0
   19.7610   22.1341   21.6526 H   0  0  0  0  0  0  0  0  0  0  0  0
   20.2958   20.7075   20.7924 H   0  0  0  0  0  0  0  0  0  0  0  0
   21.9394   18.7827   21.9839 O   0  0  0  0  0  0  0  0  0  0  0  0
   21.0865   18.6657   21.5200 H   0  0  0  0  0  0  0  0  0  0  0  0
  1  2  1  0  0  0  0
  1  3  1  0  0  0  0
  1  4  1  0  0  0  0
  4  5  1  0  0  0  0
  4  6  1  0  0  0  0
  4  7  1  0  0  0  0
  7  8  1  0  0  0  0
  7  9  1  0  0  0  0
  7 10  1  0  0  0  0
 10 11  1  0  0  0  0
 10 12  1  0  0  0  0
 10 13  1  0  0  0  0
 13 14  1  0  0  0  0
 13 15  1  0  0  0  0
 15 16  1  0  0  0  0
 15 17  1  0  0  0  0
  1 18  1  0  0  0  0
 15 18  1  0  0  0  0
 18 19  1  0  0  0  0
 18 20  1  0  0  0  0
 13 21  1  0  0  0  0
 21 22  1  0  0  0  0
M  END
> <VConfSearch Rank>
303

> <Conf_Id>
99

> <Delta U+W>
-3.852

> <U+W>
2.572

> <U>
3.922

> <W>
-1.350

> <W(PB)>
-3.345

> <W(SA)>
1.995

> <Valence>
12.571

> <Coulomb>
-10.581

> <VdW>
1.932

> <VdW6>
-10.483

> <VdW12>
12.415

> <Bond>
0.268

> <Angle>
3.728

> <Pdih>
8.575

> <Idih>
0.000

> <Tether>
0.000

$$$$
VeraChem MOL file


 22 22  0  0  0  0  0  0  0  0999 V2000     
   21.6145   19.0463   22.3445 C   0  0  0  0  0  0  0  0  0  0  0  0
   22.6856   18.9678   22.5766 H   0  0  0  0  0  0  0  0  0  0  0  0
   21.4779   18.4491   21.4329 H   0  0  0  0  0  0  0  0  0  0  0  0
   21.2966   20.5431   22.0579 C   0  0  0  0  0  0  0  0  0  0  0  0
   22.2301   21.1125   22.1658 H   0  0  0  0  0  0  0  0  0  0  0  0
   21.0053   20.6736   21.0071 H   0  0  0  0  0  0  0  0  0  0  0  0
   20.2343   21.1995   22.9762 C   0  0  0  0  0  0  0  0  0  0  0  0
   20.2472   22.2839   22.8009 H   0  0  0  0  0  0  0  0  0  0  0  0
   20.5318   21.0865   24.0261 H   0  0  0  0  0  0  0  0  0  0  0  0
   18.7729   20.7053   22.7890 C   0  0  0  0  0  0  0  0  0  0  0  0
   18.2161   20.9247   23.7091 H   0  0  0  0  0  0  0  0  0  0  0  0
   18.2975   21.3158   22.0097 H   0  0  0  0  0  0  0  0  0  0  0  0
   18.5445   19.2185   22.4208 C   0  0  0  0  0  0  0  0  0  0  0  0
   17.4723   19.0169   22.5569 H   0  0  0  0  0  0  0  0  0  0  0  0
   19.3100   18.1763   23.2728 C   0  0  0  0  0  0  0  0  0  0  0  0
   18.8166   18.0966   24.2500 H   0  0  0  0  0  0  0  0  0  0  0  0
   19.1727   17.1957   22.7978 H   0  0  0  0  0  0  0  0  0  0  0  0
   20.8294   18.3969   23.5127 C   0  0  0  0  0  0  0  0  0  0  0  0
   20.9786   18.9813   24.4291 H   0  0  0  0  0  0  0  0  0  0  0  0
   21.2803   17.4195   23.7321 H   0  0  0  0  0  0  0  0  0  0  0  0
   18.8373   19.0179   21.0470 O   0  0  0  0  0  0  0  0  0  0  0  0
   19.7944   19.2080   20.9791 H   0  0  0  0  0  0  0  0  0  0  0  0
  1  2  1  0  0  0  0
  1  3  1  0  0  0  0
  1  4  1  0  0  0  0
  4  5  1  0  0  0  0
  4  6  1  0  0  0  0
  4  7  1  0  0  0  0
  7  8  1  0  0  0  0
  7  9  1  0  0  0  0
  7 10  1  0  0  0  0
 10 11  1  0  0  0  0
 10 12  1  0  0  0  0
 10 13  1  0  0  0  0
 13 14  1  0  0  0  0
 13 15  1  0  0  0  0
 15 16  1  0  0  0  0
 15 17  1  0  0  0  0
  1 18  1  0  0  0  0
 15 18  1  0  0  0  0
 18 19  1  0  0  0  0
 18 20  1  0  0  0  0
 13 21  1  0  0  0  0
 21 22  1  0  0  0  0
M  END
> <VConfSearch Rank>
304

> <Conf_Id>
98

> <Delta U+W>
0.930

> <U+W>
7.353

> <U>
8.455

> <W>
-1.102

> <W(PB)>
-3.101

> <W(SA)>
2.000

> <Valence>
15.601

> <Coulomb>
-10.573

> <VdW>
3.427

> <VdW6>
-11.360

> <VdW12>
14.787

> <Bond>
0.471

> <Angle>
5.445

> <Pdih>
9.685

> <Idih>
0.000

> <Tether>
0.000

$$$$
VeraChem MOL file


 22 22  0  0  0  0  0  0  0  0999 V2000     
   19.9577   17.9121   22.0888 C   0  0  0  0  0  0  0  0  0  0  0  0
   20.7267   17.6785   22.8364 H   0  0  0  0  0  0  0  0  0  0  0  0
   19.7179   16.9499   21.6162 H   0  0  0  0  0  0  0  0  0  0  0  0
   20.5450   18.8583   21.0110 C   0  0  0  0  0  0  0  0  0  0  0  0
   21.4006   18.3450   20.5512 H   0  0  0  0  0  0  0  0  0  0  0  0
   19.8124   18.9964   20.2042 H   0  0  0  0  0  0  0  0  0  0  0  0
   21.0261   20.2500   21.5075 C   0  0  0  0  0  0  0  0  0  0  0  0
   20.2922   21.0203   21.2373 H   0  0  0  0  0  0  0  0  0  0  0  0
   21.9344   20.5171   20.9505 H   0  0  0  0  0  0  0  0  0  0  0  0
   21.3311   20.3363   23.0265 C   0  0  0  0  0  0  0  0  0  0  0  0
   22.0155   19.5246   23.3028 H   0  0  0  0  0  0  0  0  0  0  0  0
   21.8981   21.2584   23.2125 H   0  0  0  0  0  0  0  0  0  0  0  0
   20.0941   20.3059   23.9713 C   0  0  0  0  0  0  0  0  0  0  0  0
   20.3088   19.6016   24.7880 H   0  0  0  0  0  0  0  0  0  0  0  0
   18.7522   19.8922   23.3168 C   0  0  0  0  0  0  0  0  0  0  0  0
   17.9439   20.0269   24.0473 H   0  0  0  0  0  0  0  0  0  0  0  0
   18.5135   20.5807   22.4973 H   0  0  0  0  0  0  0  0  0  0  0  0
   18.6870   18.4330   22.8007 C   0  0  0  0  0  0  0  0  0  0  0  0
   18.4718   17.7661   23.6467 H   0  0  0  0  0  0  0  0  0  0  0  0
   17.8297   18.3424   22.1199 H   0  0  0  0  0  0  0  0  0  0  0  0
   19.9165   21.6056   24.5231 O   0  0  0  0  0  0  0  0  0  0  0  0
   19.1703   21.5447   25.1553 H   0  0  0  0  0  0  0  0  0  0  0  0
  1  2  1  0  0  0  0
  1  3  1  0  0  0  0
  1  4  1  0  0  0  0
  4  5  1  0  0  0  0
  4  6  1  0  0  0  0
  4  7  1  0  0  0  0
  7  8  1  0  0  0  0
  7  9  1  0  0  0  0
  7 10  1  0  0  0  0
 10 11  1  0  0  0  0
 10 12  1  0  0  0  0
 10 13  1  0  0  0  0
 13 14  1  0  0  0  0
 13 15  1  0  0  0  0
 15 16  1  0  0  0  0
 15 17  1  0  0  0  0
  1 18  1  0  0  0  0
 15 18  1  0  0  0  0
 18 19  1  0  0  0  0
 18 20  1  0  0  0  0
 13 21  1  0  0  0  0
 21 22  1  0  0  0  0
M  END
> <VConfSearch Rank>
305

> <Conf_Id>
141

> <Delta U+W>
0.000

> <U+W>
6.423

> <U>
8.781

> <W>
-2.358

> <W(PB)>
-4.373

> <W(SA)>
2.015

> <Valence>
13.328

> <Coulomb>
-8.387

> <VdW>
3.840

> <VdW6>
-9.744

> <VdW12>
13.584

> <Bond>
0.436

> <Angle>
3.478

> <Pdih>
9.415

> <Idih>
0.000

> <Tether>
0.000

$$$$
VeraChem MOL file


 22 22  0  0  0  0  0  0  0  0999 V2000     
   20.3546   19.1434   21.0144 C   0  0  0  0  0  0  0  0  0  0  0  0
   19.6722   19.9289   20.6625 H   0  0  0  0  0  0  0  0  0  0  0  0
   20.7939   18.6962   20.1123 H   0  0  0  0  0  0  0  0  0  0  0  0
   19.5798   18.0306   21.7607 C   0  0  0  0  0  0  0  0  0  0  0  0
   18.9586   17.4892   21.0342 H   0  0  0  0  0  0  0  0  0  0  0  0
   20.2918   17.2919   22.1536 H   0  0  0  0  0  0  0  0  0  0  0  0
   18.6653   18.5193   22.9075 C   0  0  0  0  0  0  0  0  0  0  0  0
   18.2288   17.6379   23.3967 H   0  0  0  0  0  0  0  0  0  0  0  0
   17.8185   19.0780   22.4859 H   0  0  0  0  0  0  0  0  0  0  0  0
   19.3691   19.3832   23.9824 C   0  0  0  0  0  0  0  0  0  0  0  0
   18.6877   19.4671   24.8392 H   0  0  0  0  0  0  0  0  0  0  0  0
   20.2693   18.8785   24.3563 H   0  0  0  0  0  0  0  0  0  0  0  0
   19.7147   20.8014   23.4755 C   0  0  0  0  0  0  0  0  0  0  0  0
   18.9402   21.1087   22.7582 H   0  0  0  0  0  0  0  0  0  0  0  0
   21.0914   20.9177   22.7824 C   0  0  0  0  0  0  0  0  0  0  0  0
   21.0898   21.8457   22.1962 H   0  0  0  0  0  0  0  0  0  0  0  0
   21.8722   21.0444   23.5441 H   0  0  0  0  0  0  0  0  0  0  0  0
   21.5034   19.7456   21.8569 C   0  0  0  0  0  0  0  0  0  0  0  0
   22.2900   20.1074   21.1807 H   0  0  0  0  0  0  0  0  0  0  0  0
   21.9722   18.9524   22.4551 H   0  0  0  0  0  0  0  0  0  0  0  0
   19.6996   21.6989   24.5790 O   0  0  0  0  0  0  0  0  0  0  0  0
   18.7960   21.6662   24.9572 H   0  0  0  0  0  0  0  0  0  0  0  0
  1  2  1  0  0  0  0
  1  3  1  0  0  0  0
  1  4  1  0  0  0  0
  4  5  1  0  0  0  0
  4  6  1  0  0  0  0
  4  7  1  0  0  0  0
  7  8  1  0  0  0  0
  7  9  1  0  0  0  0
  7 10  1  0  0  0  0
 10 11  1  0  0  0  0
 10 12  1  0  0  0  0
 10 13  1  0  0  0  0
 13 14  1  0  0  0  0
 13 15  1  0  0  0  0
 15 16  1  0  0  0  0
 15 17  1  0  0  0  0
  1 18  1  0  0  0  0
 15 18  1  0  0  0  0
 18 19  1  0  0  0  0
 18 20  1  0  0  0  0
 13 21  1  0  0  0  0
 21 22  1  0  0  0  0
M  END
> <VConfSearch Rank>
306

> <Conf_Id>
144

> <Delta U+W>
-3.291

> <U+W>
3.132

> <U>
5.411

> <W>
-2.279

> <W(PB)>
-4.300

> <W(SA)>
2.021

> <Valence>
11.909

> <Coulomb>
-8.733

> <VdW>
2.236

> <VdW6>
-8.936

> <VdW12>
11.172

> <Bond>
0.223

> <Angle>
2.457

> <Pdih>
9.228

> <Idih>
0.000

> <Tether>
0.000

$$$$
VeraChem MOL file


 22 22  0  0  0  0  0  0  0  0999 V2000     
   20.0712   17.8327   22.4910 C   0  0  0  0  0  0  0  0  0  0  0  0
   19.9761   16.7463   22.6240 H   0  0  0  0  0  0  0  0  0  0  0  0
   20.7152   17.9761   21.6128 H   0  0  0  0  0  0  0  0  0  0  0  0
   20.7344   18.4138   23.7617 C   0  0  0  0  0  0  0  0  0  0  0  0
   19.9714   18.5589   24.5386 H   0  0  0  0  0  0  0  0  0  0  0  0
   21.4311   17.6695   24.1710 H   0  0  0  0  0  0  0  0  0  0  0  0
   21.5165   19.7325   23.5492 C   0  0  0  0  0  0  0  0  0  0  0  0
   22.5256   19.4949   23.1857 H   0  0  0  0  0  0  0  0  0  0  0  0
   21.6572   20.2088   24.5293 H   0  0  0  0  0  0  0  0  0  0  0  0
   20.8828   20.7578   22.5769 C   0  0  0  0  0  0  0  0  0  0  0  0
   21.3413   21.7361   22.7749 H   0  0  0  0  0  0  0  0  0  0  0  0
   21.1642   20.5001   21.5477 H   0  0  0  0  0  0  0  0  0  0  0  0
   19.3454   20.8804   22.6707 C   0  0  0  0  0  0  0  0  0  0  0  0
   19.0271   20.7327   23.7125 H   0  0  0  0  0  0  0  0  0  0  0  0
   18.6136   19.8713   21.7568 C   0  0  0  0  0  0  0  0  0  0  0  0
   17.5605   20.1717   21.6736 H   0  0  0  0  0  0  0  0  0  0  0  0
   19.0269   19.9300   20.7415 H   0  0  0  0  0  0  0  0  0  0  0  0
   18.6544   18.4010   22.2367 C   0  0  0  0  0  0  0  0  0  0  0  0
   18.0512   18.2991   23.1492 H   0  0  0  0  0  0  0  0  0  0  0  0
   18.1583   17.7790   21.4792 H   0  0  0  0  0  0  0  0  0  0  0  0
   18.9757   22.1896   22.2589 O   0  0  0  0  0  0  0  0  0  0  0  0
   19.2762   22.2831   21.3315 H   0  0  0  0  0  0  0  0  0  0  0  0
  1  2  1  0  0  0  0
  1  3  1  0  0  0  0
  1  4  1  0  0  0  0
  4  5  1  0  0  0  0
  4  6  1  0  0  0  0
  4  7  1  0  0  0  0
  7  8  1  0  0  0  0
  7  9  1  0  0  0  0
  7 10  1  0  0  0  0
 10 11  1  0  0  0  0
 10 12  1  0  0  0  0
 10 13  1  0  0  0  0
 13 14  1  0  0  0  0
 13 15  1  0  0  0  0
 15 16  1  0  0  0  0
 15 17  1  0  0  0  0
  1 18  1  0  0  0  0
 15 18  1  0  0  0  0
 18 19  1  0  0  0  0
 18 20  1  0  0  0  0
 13 21  1  0  0  0  0
 21 22  1  0  0  0  0
M  END
> <VConfSearch Rank>
307

> <Conf_Id>
76

> <Delta U+W>
-3.175

> <U+W>
3.248

> <U>
5.336

> <W>
-2.088

> <W(PB)>
-4.098

> <W(SA)>
2.010

> <Valence>
12.390

> <Coulomb>
-9.270

> <VdW>
2.216

> <VdW6>
-8.967

> <VdW12>
11.183

> <Bond>
0.218

> <Angle>
2.426

> <Pdih>
9.745

> <Idih>
0.000

> <Tether>
0.000

$$$$
VeraChem MOL file


 22 22  0  0  0  0  0  0  0  0999 V2000     
   20.5880   21.0243   21.6406 C   0  0  0  0  0  0  0  0  0  0  0  0
   21.4585   21.6762   21.7955 H   0  0  0  0  0  0  0  0  0  0  0  0
   20.1302   21.3571   20.6991 H   0  0  0  0  0  0  0  0  0  0  0  0
   19.5892   21.2674   22.7973 C   0  0  0  0  0  0  0  0  0  0  0  0
   20.1434   21.4462   23.7286 H   0  0  0  0  0  0  0  0  0  0  0  0
   19.0522   22.2033   22.5909 H   0  0  0  0  0  0  0  0  0  0  0  0
   18.5589   20.1360   23.0208 C   0  0  0  0  0  0  0  0  0  0  0  0
   18.2348   19.7042   22.0641 H   0  0  0  0  0  0  0  0  0  0  0  0
   17.6616   20.5769   23.4756 H   0  0  0  0  0  0  0  0  0  0  0  0
   19.0782   19.0317   23.9762 C   0  0  0  0  0  0  0  0  0  0  0  0
   19.4610   19.4983   24.8928 H   0  0  0  0  0  0  0  0  0  0  0  0
   18.2275   18.4142   24.2930 H   0  0  0  0  0  0  0  0  0  0  0  0
   20.1637   18.0904   23.4062 C   0  0  0  0  0  0  0  0  0  0  0  0
   20.5455   17.4988   24.2507 H   0  0  0  0  0  0  0  0  0  0  0  0
   21.3798   18.8013   22.7610 C   0  0  0  0  0  0  0  0  0  0  0  0
   21.8461   19.4763   23.4902 H   0  0  0  0  0  0  0  0  0  0  0  0
   22.1343   18.0343   22.5432 H   0  0  0  0  0  0  0  0  0  0  0  0
   21.0746   19.5681   21.4480 C   0  0  0  0  0  0  0  0  0  0  0  0
   21.9854   19.5955   20.8346 H   0  0  0  0  0  0  0  0  0  0  0  0
   20.3385   19.0143   20.8506 H   0  0  0  0  0  0  0  0  0  0  0  0
   19.5670   17.1963   22.4721 O   0  0  0  0  0  0  0  0  0  0  0  0
   20.2936   16.6567   22.0992 H   0  0  0  0  0  0  0  0  0  0  0  0
  1  2  1  0  0  0  0
  1  3  1  0  0  0  0
  1  4  1  0  0  0  0
  4  5  1  0  0  0  0
  4  6  1  0  0  0  0
  4  7  1  0  0  0  0
  7  8  1  0  0  0  0
  7  9  1  0  0  0  0
  7 10  1  0  0  0  0
 10 11  1  0  0  0  0
 10 12  1  0  0  0  0
 10 13  1  0  0  0  0
 13 14  1  0  0  0  0
 13 15  1  0  0  0  0
 15 16  1  0  0  0  0
 15 17  1  0  0  0  0
  1 18  1  0  0  0  0
 15 18  1  0  0  0  0
 18 19  1  0  0  0  0
 18 20  1  0  0  0  0
 13 21  1  0  0  0  0
 21 22  1  0  0  0  0
M  END
> <VConfSearch Rank>
308

> <Conf_Id>
95

> <Delta U+W>
-2.289

> <U+W>
4.134

> <U>
6.373

> <W>
-2.240

> <W(PB)>
-4.254

> <W(SA)>
2.015

> <Valence>
12.093

> <Coulomb>
-8.058

> <VdW>
2.339

> <VdW6>
-9.683

> <VdW12>
12.022

> <Bond>
0.268

> <Angle>
3.005

> <Pdih>
8.820

> <Idih>
0.000

> <Tether>
0.000

$$$$
VeraChem MOL file


 22 22  0  0  0  0  0  0  0  0999 V2000     
   18.6566   19.7352   21.3974 C   0  0  0  0  0  0  0  0  0  0  0  0
   18.1561   18.9088   20.8746 H   0  0  0  0  0  0  0  0  0  0  0  0
   18.1670   20.6523   21.0425 H   0  0  0  0  0  0  0  0  0  0  0  0
   20.1403   19.7574   20.9584 C   0  0  0  0  0  0  0  0  0  0  0  0
   20.4953   18.7278   20.8161 H   0  0  0  0  0  0  0  0  0  0  0  0
   20.1935   20.2258   19.9661 H   0  0  0  0  0  0  0  0  0  0  0  0
   21.0964   20.5037   21.9178 C   0  0  0  0  0  0  0  0  0  0  0  0
   20.6125   21.3945   22.3411 H   0  0  0  0  0  0  0  0  0  0  0  0
   21.9496   20.8700   21.3310 H   0  0  0  0  0  0  0  0  0  0  0  0
   21.6519   19.5892   23.0387 C   0  0  0  0  0  0  0  0  0  0  0  0
   22.0504   18.6709   22.5882 H   0  0  0  0  0  0  0  0  0  0  0  0
   22.5155   20.0851   23.5005 H   0  0  0  0  0  0  0  0  0  0  0  0
   20.6580   19.2004   24.1570 C   0  0  0  0  0  0  0  0  0  0  0  0
   21.1482   18.4238   24.7618 H   0  0  0  0  0  0  0  0  0  0  0  0
   19.3122   18.6110   23.6653 C   0  0  0  0  0  0  0  0  0  0  0  0
   19.4960   17.7260   23.0427 H   0  0  0  0  0  0  0  0  0  0  0  0
   18.7744   18.2482   24.5507 H   0  0  0  0  0  0  0  0  0  0  0  0
   18.3900   19.6079   22.9163 C   0  0  0  0  0  0  0  0  0  0  0  0
   17.3467   19.2918   23.0502 H   0  0  0  0  0  0  0  0  0  0  0  0
   18.4546   20.5994   23.3836 H   0  0  0  0  0  0  0  0  0  0  0  0
   20.4216   20.3297   24.9923 O   0  0  0  0  0  0  0  0  0  0  0  0
   21.2994   20.6710   25.2592 H   0  0  0  0  0  0  0  0  0  0  0  0
  1  2  1  0  0  0  0
  1  3  1  0  0  0  0
  1  4  1  0  0  0  0
  4  5  1  0  0  0  0
  4  6  1  0  0  0  0
  4  7  1  0  0  0  0
  7  8  1  0  0  0  0
  7  9  1  0  0  0  0
  7 10  1  0  0  0  0
 10 11  1  0  0  0  0
 10 12  1  0  0  0  0
 10 13  1  0  0  0  0
 13 14  1  0  0  0  0
 13 15  1  0  0  0  0
 15 16  1  0  0  0  0
 15 17  1  0  0  0  0
  1 18  1  0  0  0  0
 15 18  1  0  0  0  0
 18 19  1  0  0  0  0
 18 20  1  0  0  0  0
 13 21  1  0  0  0  0
 21 22  1  0  0  0  0
M  END
> <VConfSearch Rank>
309

> <Conf_Id>
41

> <Delta U+W>
-2.114

> <U+W>
4.310

> <U>
6.598

> <W>
-2.289

> <W(PB)>
-4.294

> <W(SA)>
2.005

> <Valence>
12.082

> <Coulomb>
-7.801

> <VdW>
2.317

> <VdW6>
-9.658

> <VdW12>
11.975

> <Bond>
0.267

> <Angle>
3.051

> <Pdih>
8.764

> <Idih>
0.000

> <Tether>
0.000

$$$$
VeraChem MOL file


 22 22  0  0  0  0  0  0  0  0999 V2000     
   21.6300   20.1625   22.7503 C   0  0  0  0  0  0  0  0  0  0  0  0
   22.6395   20.4984   23.0238 H   0  0  0  0  0  0  0  0  0  0  0  0
   21.6177   20.0847   21.6545 H   0  0  0  0  0  0  0  0  0  0  0  0
   20.6270   21.2339   23.2334 C   0  0  0  0  0  0  0  0  0  0  0  0
   20.6094   21.2523   24.3316 H   0  0  0  0  0  0  0  0  0  0  0  0
   20.9918   22.2219   22.9215 H   0  0  0  0  0  0  0  0  0  0  0  0
   19.1891   21.0583   22.6979 C   0  0  0  0  0  0  0  0  0  0  0  0
   19.1756   21.2512   21.6170 H   0  0  0  0  0  0  0  0  0  0  0  0
   18.5636   21.8429   23.1443 H   0  0  0  0  0  0  0  0  0  0  0  0
   18.5359   19.6823   23.0000 C   0  0  0  0  0  0  0  0  0  0  0  0
   18.6180   19.4532   24.0701 H   0  0  0  0  0  0  0  0  0  0  0  0
   17.4610   19.7735   22.7982 H   0  0  0  0  0  0  0  0  0  0  0  0
   19.0574   18.4851   22.1641 C   0  0  0  0  0  0  0  0  0  0  0  0
   18.3065   17.6868   22.2541 H   0  0  0  0  0  0  0  0  0  0  0  0
   20.4010   17.8675   22.6314 C   0  0  0  0  0  0  0  0  0  0  0  0
   20.1730   17.0107   23.2787 H   0  0  0  0  0  0  0  0  0  0  0  0
   20.9206   17.4421   21.7628 H   0  0  0  0  0  0  0  0  0  0  0  0
   21.3874   18.7820   23.3994 C   0  0  0  0  0  0  0  0  0  0  0  0
   21.0454   18.9130   24.4349 H   0  0  0  0  0  0  0  0  0  0  0  0
   22.3480   18.2540   23.4713 H   0  0  0  0  0  0  0  0  0  0  0  0
   19.1461   18.8400   20.7867 O   0  0  0  0  0  0  0  0  0  0  0  0
   19.4399   18.0393   20.3068 H   0  0  0  0  0  0  0  0  0  0  0  0
  1  2  1  0  0  0  0
  1  3  1  0  0  0  0
  1  4  1  0  0  0  0
  4  5  1  0  0  0  0
  4  6  1  0  0  0  0
  4  7  1  0  0  0  0
  7  8  1  0  0  0  0
  7  9  1  0  0  0  0
  7 10  1  0  0  0  0
 10 11  1  0  0  0  0
 10 12  1  0  0  0  0
 10 13  1  0  0  0  0
 13 14  1  0  0  0  0
 13 15  1  0  0  0  0
 15 16  1  0  0  0  0
 15 17  1  0  0  0  0
  1 18  1  0  0  0  0
 15 18  1  0  0  0  0
 18 19  1  0  0  0  0
 18 20  1  0  0  0  0
 13 21  1  0  0  0  0
 21 22  1  0  0  0  0
M  END
> <VConfSearch Rank>
310

> <Conf_Id>
104

> <Delta U+W>
-1.172

> <U+W>
5.252

> <U>
7.482

> <W>
-2.230

> <W(PB)>
-4.220

> <W(SA)>
1.990

> <Valence>
12.309

> <Coulomb>
-7.084

> <VdW>
2.258

> <VdW6>
-9.770

> <VdW12>
12.028

> <Bond>
0.284

> <Angle>
3.491

> <Pdih>
8.535

> <Idih>
0.000

> <Tether>
0.000

$$$$
VeraChem MOL file


 22 22  0  0  0  0  0  0  0  0999 V2000     
   18.6035   19.9663   22.0133 C   0  0  0  0  0  0  0  0  0  0  0  0
   18.8365   19.4819   21.0554 H   0  0  0  0  0  0  0  0  0  0  0  0
   17.5972   20.3923   21.8995 H   0  0  0  0  0  0  0  0  0  0  0  0
   19.5806   21.1304   22.2954 C   0  0  0  0  0  0  0  0  0  0  0  0
   19.2606   22.0053   21.7128 H   0  0  0  0  0  0  0  0  0  0  0  0
   19.4860   21.4383   23.3450 H   0  0  0  0  0  0  0  0  0  0  0  0
   21.0677   20.8560   21.9565 C   0  0  0  0  0  0  0  0  0  0  0  0
   21.6929   21.5094   22.5807 H   0  0  0  0  0  0  0  0  0  0  0  0
   21.2532   21.1770   20.9223 H   0  0  0  0  0  0  0  0  0  0  0  0
   21.5694   19.3925   22.0891 C   0  0  0  0  0  0  0  0  0  0  0  0
   21.2503   18.8225   21.2070 H   0  0  0  0  0  0  0  0  0  0  0  0
   22.6660   19.4047   22.0424 H   0  0  0  0  0  0  0  0  0  0  0  0
   21.1513   18.6168   23.3594 C   0  0  0  0  0  0  0  0  0  0  0  0
   21.8733   17.7989   23.4955 H   0  0  0  0  0  0  0  0  0  0  0  0
   19.7560   17.9646   23.2323 C   0  0  0  0  0  0  0  0  0  0  0  0
   19.7496   17.3183   22.3450 H   0  0  0  0  0  0  0  0  0  0  0  0
   19.6133   17.2924   24.0885 H   0  0  0  0  0  0  0  0  0  0  0  0
   18.5461   18.9287   23.1596 C   0  0  0  0  0  0  0  0  0  0  0  0
   17.6397   18.3217   23.0302 H   0  0  0  0  0  0  0  0  0  0  0  0
   18.4215   19.4432   24.1221 H   0  0  0  0  0  0  0  0  0  0  0  0
   21.1937   19.4638   24.4974 O   0  0  0  0  0  0  0  0  0  0  0  0
   20.5955   20.2024   24.2674 H   0  0  0  0  0  0  0  0  0  0  0  0
  1  2  1  0  0  0  0
  1  3  1  0  0  0  0
  1  4  1  0  0  0  0
  4  5  1  0  0  0  0
  4  6  1  0  0  0  0
  4  7  1  0  0  0  0
  7  8  1  0  0  0  0
  7  9  1  0  0  0  0
  7 10  1  0  0  0  0
 10 11  1  0  0  0  0
 10 12  1  0  0  0  0
 10 13  1  0  0  0  0
 13 14  1  0  0  0  0
 13 15  1  0  0  0  0
 15 16  1  0  0  0  0
 15 17  1  0  0  0  0
  1 18  1  0  0  0  0
 15 18  1  0  0  0  0
 18 19  1  0  0  0  0
 18 20  1  0  0  0  0
 13 21  1  0  0  0  0
 21 22  1  0  0  0  0
M  END
> <VConfSearch Rank>
311

> <Conf_Id>
99

> <Delta U+W>
-3.852

> <U+W>
2.572

> <U>
3.922

> <W>
-1.350

> <W(PB)>
-3.345

> <W(SA)>
1.995

> <Valence>
12.571

> <Coulomb>
-10.581

> <VdW>
1.932

> <VdW6>
-10.483

> <VdW12>
12.415

> <Bond>
0.268

> <Angle>
3.728

> <Pdih>
8.575

> <Idih>
0.000

> <Tether>
0.000

$$$$
VeraChem MOL file


 22 22  0  0  0  0  0  0  0  0999 V2000     
   18.5007   19.3906   23.1880 C   0  0  0  0  0  0  0  0  0  0  0  0
   17.4313   19.6401   23.1524 H   0  0  0  0  0  0  0  0  0  0  0  0
   18.5790   18.5854   23.9307 H   0  0  0  0  0  0  0  0  0  0  0  0
   19.2690   20.6517   23.6812 C   0  0  0  0  0  0  0  0  0  0  0  0
   18.5320   21.4470   23.8592 H   0  0  0  0  0  0  0  0  0  0  0  0
   19.7208   20.4595   24.6635 H   0  0  0  0  0  0  0  0  0  0  0  0
   20.3446   21.2121   22.7160 C   0  0  0  0  0  0  0  0  0  0  0  0
   20.6660   22.1944   23.0882 H   0  0  0  0  0  0  0  0  0  0  0  0
   19.8921   21.4222   21.7389 H   0  0  0  0  0  0  0  0  0  0  0  0
   21.6145   20.3362   22.5285 C   0  0  0  0  0  0  0  0  0  0  0  0
   22.0849   20.6137   21.5764 H   0  0  0  0  0  0  0  0  0  0  0  0
   22.3429   20.6112   23.3030 H   0  0  0  0  0  0  0  0  0  0  0  0
   21.4536   18.7965   22.5652 C   0  0  0  0  0  0  0  0  0  0  0  0
   22.3955   18.3680   22.1937 H   0  0  0  0  0  0  0  0  0  0  0  0
   20.3167   18.2054   21.6956 C   0  0  0  0  0  0  0  0  0  0  0  0
   20.6338   18.2308   20.6452 H   0  0  0  0  0  0  0  0  0  0  0  0
   20.2284   17.1399   21.9463 H   0  0  0  0  0  0  0  0  0  0  0  0
   18.9064   18.8508   21.7927 C   0  0  0  0  0  0  0  0  0  0  0  0
   18.8119   19.6484   21.0453 H   0  0  0  0  0  0  0  0  0  0  0  0
   18.1697   18.0961   21.4856 H   0  0  0  0  0  0  0  0  0  0  0  0
   21.2987   18.3659   23.9083 O   0  0  0  0  0  0  0  0  0  0  0  0
   20.4537   18.7702   24.1902 H   0  0  0  0  0  0  0  0  0  0  0  0
  1  2  1  0  0  0  0
  1  3  1  0  0  0  0
  1  4  1  0  0  0  0
  4  5  1  0  0  0  0
  4  6  1  0  0  0  0
  4  7  1  0  0  0  0
  7  8  1  0  0  0  0
  7  9  1  0  0  0  0
  7 10  1  0  0  0  0
 10 11  1  0  0  0  0
 10 12  1  0  0  0  0
 10 13  1  0  0  0  0
 13 14  1  0  0  0  0
 13 15  1  0  0  0  0
 15 16  1  0  0  0  0
 15 17  1  0  0  0  0
  1 18  1  0  0  0  0
 15 18  1  0  0  0  0
 18 19  1  0  0  0  0
 18 20  1  0  0  0  0
 13 21  1  0  0  0  0
 21 22  1  0  0  0  0
M  END
> <VConfSearch Rank>
312

> <Conf_Id>
98

> <Delta U+W>
0.930

> <U+W>
7.353

> <U>
8.455

> <W>
-1.102

> <W(PB)>
-3.101

> <W(SA)>
2.000

> <Valence>
15.601

> <Coulomb>
-10.573

> <VdW>
3.427

> <VdW6>
-11.360

> <VdW12>
14.787

> <Bond>
0.471

> <Angle>
5.445

> <Pdih>
9.685

> <Idih>
0.000

> <Tether>
0.000

$$$$
VeraChem MOL file


 22 22  0  0  0  0  0  0  0  0999 V2000     
   19.3602   19.7140   21.0764 C   0  0  0  0  0  0  0  0  0  0  0  0
   19.0723   18.6563   21.1317 H   0  0  0  0  0  0  0  0  0  0  0  0
   18.9689   20.0660   20.1122 H   0  0  0  0  0  0  0  0  0  0  0  0
   20.9052   19.8361   21.0560 C   0  0  0  0  0  0  0  0  0  0  0  0
   21.2691   19.2808   20.1807 H   0  0  0  0  0  0  0  0  0  0  0  0
   21.1891   20.8830   20.8831 H   0  0  0  0  0  0  0  0  0  0  0  0
   21.6525   19.3048   22.3105 C   0  0  0  0  0  0  0  0  0  0  0  0
   21.9758   20.1444   22.9396 H   0  0  0  0  0  0  0  0  0  0  0  0
   22.5835   18.8263   21.9775 H   0  0  0  0  0  0  0  0  0  0  0  0
   20.8531   18.2913   23.1715 C   0  0  0  0  0  0  0  0  0  0  0  0
   20.4783   17.4874   22.5258 H   0  0  0  0  0  0  0  0  0  0  0  0
   21.5517   17.7970   23.8599 H   0  0  0  0  0  0  0  0  0  0  0  0
   19.6692   18.8814   23.9926 C   0  0  0  0  0  0  0  0  0  0  0  0
   18.8000   18.2221   23.8555 H   0  0  0  0  0  0  0  0  0  0  0  0
   19.2434   20.3249   23.6249 C   0  0  0  0  0  0  0  0  0  0  0  0
   18.4914   20.6685   24.3471 H   0  0  0  0  0  0  0  0  0  0  0  0
   20.0941   21.0048   23.7539 H   0  0  0  0  0  0  0  0  0  0  0  0
   18.6522   20.5014   22.2039 C   0  0  0  0  0  0  0  0  0  0  0  0
   17.5956   20.2012   22.2188 H   0  0  0  0  0  0  0  0  0  0  0  0
   18.6580   21.5713   21.9548 H   0  0  0  0  0  0  0  0  0  0  0  0
   20.0310   18.8811   25.3689 O   0  0  0  0  0  0  0  0  0  0  0  0
   19.2502   19.2019   25.8665 H   0  0  0  0  0  0  0  0  0  0  0  0
  1  2  1  0  0  0  0
  1  3  1  0  0  0  0
  1  4  1  0  0  0  0
  4  5  1  0  0  0  0
  4  6  1  0  0  0  0
  4  7  1  0  0  0  0
  7  8  1  0  0  0  0
  7  9  1  0  0  0  0
  7 10  1  0  0  0  0
 10 11  1  0  0  0  0
 10 12  1  0  0  0  0
 10 13  1  0  0  0  0
 13 14  1  0  0  0  0
 13 15  1  0  0  0  0
 15 16  1  0  0  0  0
 15 17  1  0  0  0  0
  1 18  1  0  0  0  0
 15 18  1  0  0  0  0
 18 19  1  0  0  0  0
 18 20  1  0  0  0  0
 13 21  1  0  0  0  0
 21 22  1  0  0  0  0
M  END
> <VConfSearch Rank>
313

> <Conf_Id>
141

> <Delta U+W>
0.000

> <U+W>
6.423

> <U>
8.781

> <W>
-2.358

> <W(PB)>
-4.373

> <W(SA)>
2.015

> <Valence>
13.328

> <Coulomb>
-8.387

> <VdW>
3.840

> <VdW6>
-9.744

> <VdW12>
13.584

> <Bond>
0.436

> <Angle>
3.478

> <Pdih>
9.415

> <Idih>
0.000

> <Tether>
0.000

$$$$
VeraChem MOL file


 22 22  0  0  0  0  0  0  0  0999 V2000     
   19.1544   21.0572   23.1849 C   0  0  0  0  0  0  0  0  0  0  0  0
   19.7978   21.6422   22.5138 H   0  0  0  0  0  0  0  0  0  0  0  0
   18.4529   21.7736   23.6339 H   0  0  0  0  0  0  0  0  0  0  0  0
   19.9798   20.4264   24.3323 C   0  0  0  0  0  0  0  0  0  0  0  0
   20.3328   21.2304   24.9925 H   0  0  0  0  0  0  0  0  0  0  0  0
   19.3235   19.7990   24.9507 H   0  0  0  0  0  0  0  0  0  0  0  0
   21.2056   19.5975   23.8841 C   0  0  0  0  0  0  0  0  0  0  0  0
   21.6628   19.1516   24.7780 H   0  0  0  0  0  0  0  0  0  0  0  0
   21.9658   20.2692   23.4623 H   0  0  0  0  0  0  0  0  0  0  0  0
   20.8966   18.4680   22.8714 C   0  0  0  0  0  0  0  0  0  0  0  0
   21.7821   17.8213   22.8149 H   0  0  0  0  0  0  0  0  0  0  0  0
   20.0782   17.8339   23.2363 H   0  0  0  0  0  0  0  0  0  0  0  0
   20.5764   19.0049   21.4583 C   0  0  0  0  0  0  0  0  0  0  0  0
   21.1648   19.9194   21.2961 H   0  0  0  0  0  0  0  0  0  0  0  0
   19.0860   19.3386   21.2208 C   0  0  0  0  0  0  0  0  0  0  0  0
   19.0290   19.9922   20.3407 H   0  0  0  0  0  0  0  0  0  0  0  0
   18.5469   18.4211   20.9493 H   0  0  0  0  0  0  0  0  0  0  0  0
   18.3311   20.0151   22.3924 C   0  0  0  0  0  0  0  0  0  0  0  0
   17.4366   20.5038   21.9827 H   0  0  0  0  0  0  0  0  0  0  0  0
   17.9562   19.2456   23.0809 H   0  0  0  0  0  0  0  0  0  0  0  0
   20.9685   18.0312   20.4983 O   0  0  0  0  0  0  0  0  0  0  0  0
   21.9312   17.8903   20.6161 H   0  0  0  0  0  0  0  0  0  0  0  0
  1  2  1  0  0  0  0
  1  3  1  0  0  0  0
  1  4  1  0  0  0  0
  4  5  1  0  0  0  0
  4  6  1  0  0  0  0
  4  7  1  0  0  0  0
  7  8  1  0  0  0  0
  7  9  1  0  0  0  0
  7 10  1  0  0  0  0
 10 11  1  0  0  0  0
 10 12  1  0  0  0  0
 10 13  1  0  0  0  0
 13 14  1  0  0  0  0
 13 15  1  0  0  0  0
 15 16  1  0  0  0  0
 15 17  1  0  0  0  0
  1 18  1  0  0  0  0
 15 18  1  0  0  0  0
 18 19  1  0  0  0  0
 18 20  1  0  0  0  0
 13 21  1  0  0  0  0
 21 22  1  0  0  0  0
M  END
> <VConfSearch Rank>
314

> <Conf_Id>
144

> <Delta U+W>
-3.291

> <U+W>
3.132

> <U>
5.411

> <W>
-2.279

> <W(PB)>
-4.300

> <W(SA)>
2.021

> <Valence>
11.909

> <Coulomb>
-8.733

> <VdW>
2.236

> <VdW6>
-8.936

> <VdW12>
11.172

> <Bond>
0.223

> <Angle>
2.457

> <Pdih>
9.228

> <Idih>
0.000

> <Tether>
0.000

$$$$
VeraChem MOL file


 22 22  0  0  0  0  0  0  0  0999 V2000     
   21.2984   19.0251   23.5908 C   0  0  0  0  0  0  0  0  0  0  0  0
   22.2882   18.6794   23.9190 H   0  0  0  0  0  0  0  0  0  0  0  0
   20.6953   19.1302   24.5029 H   0  0  0  0  0  0  0  0  0  0  0  0
   20.7009   17.9473   22.6562 C   0  0  0  0  0  0  0  0  0  0  0  0
   21.1019   18.0798   21.6420 H   0  0  0  0  0  0  0  0  0  0  0  0
   21.0523   16.9591   22.9831 H   0  0  0  0  0  0  0  0  0  0  0  0
   19.1544   17.9094   22.6023 C   0  0  0  0  0  0  0  0  0  0  0  0
   18.7818   17.3172   23.4493 H   0  0  0  0  0  0  0  0  0  0  0  0
   18.8568   17.3585   21.6996 H   0  0  0  0  0  0  0  0  0  0  0  0
   18.4330   19.2795   22.6175 C   0  0  0  0  0  0  0  0  0  0  0  0
   17.4108   19.1250   22.2465 H   0  0  0  0  0  0  0  0  0  0  0  0
   18.3246   19.6184   23.6560 H   0  0  0  0  0  0  0  0  0  0  0  0
   19.1206   20.3871   21.7880 C   0  0  0  0  0  0  0  0  0  0  0  0
   19.5924   19.9428   20.9000 H   0  0  0  0  0  0  0  0  0  0  0  0
   20.1781   21.1668   22.6019 C   0  0  0  0  0  0  0  0  0  0  0  0
   20.4398   22.0816   22.0534 H   0  0  0  0  0  0  0  0  0  0  0  0
   19.7384   21.4980   23.5516 H   0  0  0  0  0  0  0  0  0  0  0  0
   21.4861   20.3928   22.8913 C   0  0  0  0  0  0  0  0  0  0  0  0
   22.0396   20.2498   21.9531 H   0  0  0  0  0  0  0  0  0  0  0  0
   22.1259   21.0242   23.5227 H   0  0  0  0  0  0  0  0  0  0  0  0
   18.1266   21.3112   21.3657 O   0  0  0  0  0  0  0  0  0  0  0  0
   17.7301   21.6825   22.1806 H   0  0  0  0  0  0  0  0  0  0  0  0
  1  2  1  0  0  0  0
  1  3  1  0  0  0  0
  1  4  1  0  0  0  0
  4  5  1  0  0  0  0
  4  6  1  0  0  0  0
  4  7  1  0  0  0  0
  7  8  1  0  0  0  0
  7  9  1  0  0  0  0
  7 10  1  0  0  0  0
 10 11  1  0  0  0  0
 10 12  1  0  0  0  0
 10 13  1  0  0  0  0
 13 14  1  0  0  0  0
 13 15  1  0  0  0  0
 15 16  1  0  0  0  0
 15 17  1  0  0  0  0
  1 18  1  0  0  0  0
 15 18  1  0  0  0  0
 18 19  1  0  0  0  0
 18 20  1  0  0  0  0
 13 21  1  0  0  0  0
 21 22  1  0  0  0  0
M  END
> <VConfSearch Rank>
315

> <Conf_Id>
76

> <Delta U+W>
-3.175

> <U+W>
3.248

> <U>
5.336

> <W>
-2.088

> <W(PB)>
-4.098

> <W(SA)>
2.010

> <Valence>
12.390

> <Coulomb>
-9.270

> <VdW>
2.216

> <VdW6>
-8.967

> <VdW12>
11.183

> <Bond>
0.218

> <Angle>
2.426

> <Pdih>
9.745

> <Idih>
0.000

> <Tether>
0.000

$$$$
VeraChem MOL file


 22 22  0  0  0  0  0  0  0  0999 V2000     
   20.2736   18.7927   20.9877 C   0  0  0  0  0  0  0  0  0  0  0  0
   19.6356   18.9497   20.1073 H   0  0  0  0  0  0  0  0  0  0  0  0
   21.1039   18.1602   20.6452 H   0  0  0  0  0  0  0  0  0  0  0  0
   19.4550   18.0158   22.0464 C   0  0  0  0  0  0  0  0  0  0  0  0
   18.4093   18.3511   22.0197 H   0  0  0  0  0  0  0  0  0  0  0  0
   19.4319   16.9586   21.7488 H   0  0  0  0  0  0  0  0  0  0  0  0
   19.9914   18.1187   23.4931 C   0  0  0  0  0  0  0  0  0  0  0  0
   21.0899   18.1220   23.5063 H   0  0  0  0  0  0  0  0  0  0  0  0
   19.6829   17.2154   24.0363 H   0  0  0  0  0  0  0  0  0  0  0  0
   19.4274   19.3440   24.2565 C   0  0  0  0  0  0  0  0  0  0  0  0
   18.3338   19.3537   24.1653 H   0  0  0  0  0  0  0  0  0  0  0  0
   19.6328   19.2145   25.3272 H   0  0  0  0  0  0  0  0  0  0  0  0
   19.9746   20.7254   23.8303 C   0  0  0  0  0  0  0  0  0  0  0  0
   19.3508   21.4811   24.3291 H   0  0  0  0  0  0  0  0  0  0  0  0
   19.9156   21.0171   22.3098 C   0  0  0  0  0  0  0  0  0  0  0  0
   18.8822   20.9218   21.9524 H   0  0  0  0  0  0  0  0  0  0  0  0
   20.1827   22.0718   22.1645 H   0  0  0  0  0  0  0  0  0  0  0  0
   20.8608   20.1524   21.4357 C   0  0  0  0  0  0  0  0  0  0  0  0
   21.1247   20.7195   20.5327 H   0  0  0  0  0  0  0  0  0  0  0  0
   21.8103   19.9838   21.9606 H   0  0  0  0  0  0  0  0  0  0  0  0
   21.3095   20.8687   24.3049 O   0  0  0  0  0  0  0  0  0  0  0  0
   21.6335   21.7298   23.9705 H   0  0  0  0  0  0  0  0  0  0  0  0
  1  2  1  0  0  0  0
  1  3  1  0  0  0  0
  1  4  1  0  0  0  0
  4  5  1  0  0  0  0
  4  6  1  0  0  0  0
  4  7  1  0  0  0  0
  7  8  1  0  0  0  0
  7  9  1  0  0  0  0
  7 10  1  0  0  0  0
 10 11  1  0  0  0  0
 10 12  1  0  0  0  0
 10 13  1  0  0  0  0
 13 14  1  0  0  0  0
 13 15  1  0  0  0  0
 15 16  1  0  0  0  0
 15 17  1  0  0  0  0
  1 18  1  0  0  0  0
 15 18  1  0  0  0  0
 18 19  1  0  0  0  0
 18 20  1  0  0  0  0
 13 21  1  0  0  0  0
 21 22  1  0  0  0  0
M  END
> <VConfSearch Rank>
316

> <Conf_Id>
95

> <Delta U+W>
-2.289

> <U+W>
4.134

> <U>
6.373

> <W>
-2.240

> <W(PB)>
-4.254

> <W(SA)>
2.015

> <Valence>
12.093

> <Coulomb>
-8.058

> <VdW>
2.339

> <VdW6>
-9.683

> <VdW12>
12.022

> <Bond>
0.268

> <Angle>
3.005

> <Pdih>
8.820

> <Idih>
0.000

> <Tether>
0.000

$$$$
VeraChem MOL file


 22 22  0  0  0  0  0  0  0  0999 V2000     
   21.5430   18.5094   22.3118 C   0  0  0  0  0  0  0  0  0  0  0  0
   22.5957   18.8035   22.2019 H   0  0  0  0  0  0  0  0  0  0  0  0
   21.5239   17.4182   22.1865 H   0  0  0  0  0  0  0  0  0  0  0  0
   20.7364   19.1598   21.1626 C   0  0  0  0  0  0  0  0  0  0  0  0
   21.1457   20.1559   20.9463 H   0  0  0  0  0  0  0  0  0  0  0  0
   20.9062   18.5690   20.2522 H   0  0  0  0  0  0  0  0  0  0  0  0
   19.2142   19.2717   21.4119 C   0  0  0  0  0  0  0  0  0  0  0  0
   18.8373   18.3888   21.9460 H   0  0  0  0  0  0  0  0  0  0  0  0
   18.7092   19.2767   20.4366 H   0  0  0  0  0  0  0  0  0  0  0  0
   18.8244   20.5759   22.1524 C   0  0  0  0  0  0  0  0  0  0  0  0
   19.2875   21.4305   21.6423 H   0  0  0  0  0  0  0  0  0  0  0  0
   17.7420   20.7276   22.0498 H   0  0  0  0  0  0  0  0  0  0  0  0
   19.1852   20.6416   23.6541 C   0  0  0  0  0  0  0  0  0  0  0  0
   19.0061   21.6767   23.9788 H   0  0  0  0  0  0  0  0  0  0  0  0
   20.6602   20.3086   23.9914 C   0  0  0  0  0  0  0  0  0  0  0  0
   21.3311   20.9834   23.4445 H   0  0  0  0  0  0  0  0  0  0  0  0
   20.8088   20.5353   25.0550 H   0  0  0  0  0  0  0  0  0  0  0  0
   21.0751   18.8337   23.7506 C   0  0  0  0  0  0  0  0  0  0  0  0
   21.8948   18.5815   24.4368 H   0  0  0  0  0  0  0  0  0  0  0  0
   20.2499   18.1640   24.0268 H   0  0  0  0  0  0  0  0  0  0  0  0
   18.3110   19.7891   24.3875 O   0  0  0  0  0  0  0  0  0  0  0  0
   17.3988   20.0290   24.1257 H   0  0  0  0  0  0  0  0  0  0  0  0
  1  2  1  0  0  0  0
  1  3  1  0  0  0  0
  1  4  1  0  0  0  0
  4  5  1  0  0  0  0
  4  6  1  0  0  0  0
  4  7  1  0  0  0  0
  7  8  1  0  0  0  0
  7  9  1  0  0  0  0
  7 10  1  0  0  0  0
 10 11  1  0  0  0  0
 10 12  1  0  0  0  0
 10 13  1  0  0  0  0
 13 14  1  0  0  0  0
 13 15  1  0  0  0  0
 15 16  1  0  0  0  0
 15 17  1  0  0  0  0
  1 18  1  0  0  0  0
 15 18  1  0  0  0  0
 18 19  1  0  0  0  0
 18 20  1  0  0  0  0
 13 21  1  0  0  0  0
 21 22  1  0  0  0  0
M  END
> <VConfSearch Rank>
317

> <Conf_Id>
41

> <Delta U+W>
-2.114

> <U+W>
4.310

> <U>
6.598

> <W>
-2.289

> <W(PB)>
-4.294

> <W(SA)>
2.005

> <Valence>
12.082

> <Coulomb>
-7.801

> <VdW>
2.317

> <VdW6>
-9.658

> <VdW12>
11.975

> <Bond>
0.267

> <Angle>
3.051

> <Pdih>
8.764

> <Idih>
0.000

> <Tether>
0.000

$$$$
VeraChem MOL file


 22 22  0  0  0  0  0  0  0  0999 V2000     
   20.1822   21.1742   22.4151 C   0  0  0  0  0  0  0  0  0  0  0  0
   20.3987   22.2509   22.4295 H   0  0  0  0  0  0  0  0  0  0  0  0
   19.8372   20.9430   21.3978 H   0  0  0  0  0  0  0  0  0  0  0  0
   19.0643   20.9018   23.4463 C   0  0  0  0  0  0  0  0  0  0  0  0
   19.4483   21.0792   24.4601 H   0  0  0  0  0  0  0  0  0  0  0  0
   18.2615   21.6363   23.2957 H   0  0  0  0  0  0  0  0  0  0  0  0
   18.4470   19.4883   23.3691 C   0  0  0  0  0  0  0  0  0  0  0  0
   17.8793   19.3880   22.4344 H   0  0  0  0  0  0  0  0  0  0  0  0
   17.7056   19.3984   24.1743 H   0  0  0  0  0  0  0  0  0  0  0  0
   19.4588   18.3181   23.5041 C   0  0  0  0  0  0  0  0  0  0  0  0
   20.0799   18.4584   24.3978 H   0  0  0  0  0  0  0  0  0  0  0  0
   18.8835   17.4009   23.6841 H   0  0  0  0  0  0  0  0  0  0  0  0
   20.3620   18.0560   22.2714 C   0  0  0  0  0  0  0  0  0  0  0  0
   20.7708   17.0420   22.3900 H   0  0  0  0  0  0  0  0  0  0  0  0
   21.5842   18.9979   22.1155 C   0  0  0  0  0  0  0  0  0  0  0  0
   22.4546   18.5001   22.5623 H   0  0  0  0  0  0  0  0  0  0  0  0
   21.8254   19.0974   21.0490 H   0  0  0  0  0  0  0  0  0  0  0  0
   21.4880   20.4139   22.7356 C   0  0  0  0  0  0  0  0  0  0  0  0
   21.6263   20.3548   23.8236 H   0  0  0  0  0  0  0  0  0  0  0  0
   22.3374   21.0021   22.3626 H   0  0  0  0  0  0  0  0  0  0  0  0
   19.5886   18.0717   21.0746 O   0  0  0  0  0  0  0  0  0  0  0  0
   20.2004   17.8622   20.3399 H   0  0  0  0  0  0  0  0  0  0  0  0
  1  2  1  0  0  0  0
  1  3  1  0  0  0  0
  1  4  1  0  0  0  0
  4  5  1  0  0  0  0
  4  6  1  0  0  0  0
  4  7  1  0  0  0  0
  7  8  1  0  0  0  0
  7  9  1  0  0  0  0
  7 10  1  0  0  0  0
 10 11  1  0  0  0  0
 10 12  1  0  0  0  0
 10 13  1  0  0  0  0
 13 14  1  0  0  0  0
 13 15  1  0  0  0  0
 15 16  1  0  0  0  0
 15 17  1  0  0  0  0
  1 18  1  0  0  0  0
 15 18  1  0  0  0  0
 18 19  1  0  0  0  0
 18 20  1  0  0  0  0
 13 21  1  0  0  0  0
 21 22  1  0  0  0  0
M  END
> <VConfSearch Rank>
318

> <Conf_Id>
104

> <Delta U+W>
-1.172

> <U+W>
5.252

> <U>
7.482

> <W>
-2.230

> <W(PB)>
-4.220

> <W(SA)>
1.990

> <Valence>
12.309

> <Coulomb>
-7.084

> <VdW>
2.258

> <VdW6>
-9.770

> <VdW12>
12.028

> <Bond>
0.284

> <Angle>
3.491

> <Pdih>
8.535

> <Idih>
0.000

> <Tether>
0.000

$$$$
VeraChem MOL file


 22 22  0  0  0  0  0  0  0  0999 V2000     
   21.7010   19.6470   22.8170 C   0  0  0  0  0  0  0  0  0  0  0  0
   21.8074   20.4139   22.0380 H   0  0  0  0  0  0  0  0  0  0  0  0
   22.7209   19.4129   23.1518 H   0  0  0  0  0  0  0  0  0  0  0  0
   21.0851   18.3530   22.2376 C   0  0  0  0  0  0  0  0  0  0  0  0
   21.8736   17.7924   21.7167 H   0  0  0  0  0  0  0  0  0  0  0  0
   20.7694   17.6998   23.0616 H   0  0  0  0  0  0  0  0  0  0  0  0
   19.9135   18.5538   21.2432 C   0  0  0  0  0  0  0  0  0  0  0  0
   19.2887   17.6500   21.2548 H   0  0  0  0  0  0  0  0  0  0  0  0
   20.3263   18.6092   20.2266 H   0  0  0  0  0  0  0  0  0  0  0  0
   19.0105   19.8001   21.4497 C   0  0  0  0  0  0  0  0  0  0  0  0
   19.5211   20.6840   21.0460 H   0  0  0  0  0  0  0  0  0  0  0  0
   18.1147   19.6762   20.8276 H   0  0  0  0  0  0  0  0  0  0  0  0
   18.5536   20.1073   22.8943 C   0  0  0  0  0  0  0  0  0  0  0  0
   17.6495   20.7292   22.8260 H   0  0  0  0  0  0  0  0  0  0  0  0
   19.5963   20.9211   23.6934 C   0  0  0  0  0  0  0  0  0  0  0  0
   19.8247   21.8405   23.1389 H   0  0  0  0  0  0  0  0  0  0  0  0
   19.1285   21.2498   24.6306 H   0  0  0  0  0  0  0  0  0  0  0  0
   20.9229   20.1986   24.0353 C   0  0  0  0  0  0  0  0  0  0  0  0
   21.5692   20.9138   24.5622 H   0  0  0  0  0  0  0  0  0  0  0  0
   20.7320   19.3894   24.7531 H   0  0  0  0  0  0  0  0  0  0  0  0
   18.2371   18.9074   23.5830 O   0  0  0  0  0  0  0  0  0  0  0  0
   19.0576   18.3781   23.5294 H   0  0  0  0  0  0  0  0  0  0  0  0
  1  2  1  0  0  0  0
  1  3  1  0  0  0  0
  1  4  1  0  0  0  0
  4  5  1  0  0  0  0
  4  6  1  0  0  0  0
  4  7  1  0  0  0  0
  7  8  1  0  0  0  0
  7  9  1  0  0  0  0
  7 10  1  0  0  0  0
 10 11  1  0  0  0  0
 10 12  1  0  0  0  0
 10 13  1  0  0  0  0
 13 14  1  0  0  0  0
 13 15  1  0  0  0  0
 15 16  1  0  0  0  0
 15 17  1  0  0  0  0
  1 18  1  0  0  0  0
 15 18  1  0  0  0  0
 18 19  1  0  0  0  0
 18 20  1  0  0  0  0
 13 21  1  0  0  0  0
 21 22  1  0  0  0  0
M  END
> <VConfSearch Rank>
319

> <Conf_Id>
99

> <Delta U+W>
-3.852

> <U+W>
2.572

> <U>
3.922

> <W>
-1.350

> <W(PB)>
-3.345

> <W(SA)>
1.995

> <Valence>
12.571

> <Coulomb>
-10.581

> <VdW>
1.932

> <VdW6>
-10.483

> <VdW12>
12.415

> <Bond>
0.268

> <Angle>
3.728

> <Pdih>
8.575

> <Idih>
0.000

> <Tether>
0.000

$$$$
VeraChem MOL file


 22 22  0  0  0  0  0  0  0  0999 V2000     
   18.4519   19.3798   22.3600 C   0  0  0  0  0  0  0  0  0  0  0  0
   17.3954   19.6510   22.4927 H   0  0  0  0  0  0  0  0  0  0  0  0
   18.4432   18.5522   21.6382 H   0  0  0  0  0  0  0  0  0  0  0  0
   18.9948   18.8879   23.7337 C   0  0  0  0  0  0  0  0  0  0  0  0
   18.1732   18.9460   24.4610 H   0  0  0  0  0  0  0  0  0  0  0  0
   19.2501   17.8212   23.6797 H   0  0  0  0  0  0  0  0  0  0  0  0
   20.1948   19.6801   24.3126 C   0  0  0  0  0  0  0  0  0  0  0  0
   20.3500   19.3627   25.3528 H   0  0  0  0  0  0  0  0  0  0  0  0
   19.9362   20.7438   24.3848 H   0  0  0  0  0  0  0  0  0  0  0  0
   21.5447   19.5183   23.5600 C   0  0  0  0  0  0  0  0  0  0  0  0
   22.1754   20.3847   23.7970 H   0  0  0  0  0  0  0  0  0  0  0  0
   22.0734   18.6515   23.9785 H   0  0  0  0  0  0  0  0  0  0  0  0
   21.5088   19.3445   22.0216 C   0  0  0  0  0  0  0  0  0  0  0  0
   22.5392   19.4754   21.6613 H   0  0  0  0  0  0  0  0  0  0  0  0
   20.6275   20.3490   21.2390 C   0  0  0  0  0  0  0  0  0  0  0  0
   21.1500   21.3136   21.2014 H   0  0  0  0  0  0  0  0  0  0  0  0
   20.5790   20.0047   20.1973 H   0  0  0  0  0  0  0  0  0  0  0  0
   19.1785   20.6010   21.7406 C   0  0  0  0  0  0  0  0  0  0  0  0
   19.1729   21.4355   22.4526 H   0  0  0  0  0  0  0  0  0  0  0  0
   18.5859   20.9611   20.8886 H   0  0  0  0  0  0  0  0  0  0  0  0
   21.1183   18.0185   21.7013 O   0  0  0  0  0  0  0  0  0  0  0  0
   20.2028   17.9534   22.0396 H   0  0  0  0  0  0  0  0  0  0  0  0
  1  2  1  0  0  0  0
  1  3  1  0  0  0  0
  1  4  1  0  0  0  0
  4  5  1  0  0  0  0
  4  6  1  0  0  0  0
  4  7  1  0  0  0  0
  7  8  1  0  0  0  0
  7  9  1  0  0  0  0
  7 10  1  0  0  0  0
 10 11  1  0  0  0  0
 10 12  1  0  0  0  0
 10 13  1  0  0  0  0
 13 14  1  0  0  0  0
 13 15  1  0  0  0  0
 15 16  1  0  0  0  0
 15 17  1  0  0  0  0
  1 18  1  0  0  0  0
 15 18  1  0  0  0  0
 18 19  1  0  0  0  0
 18 20  1  0  0  0  0
 13 21  1  0  0  0  0
 21 22  1  0  0  0  0
M  END
> <VConfSearch Rank>
320

> <Conf_Id>
98

> <Delta U+W>
0.930

> <U+W>
7.353

> <U>
8.455

> <W>
-1.102

> <W(PB)>
-3.101

> <W(SA)>
2.000

> <Valence>
15.601

> <Coulomb>
-10.573

> <VdW>
3.427

> <VdW6>
-11.360

> <VdW12>
14.787

> <Bond>
0.471

> <Angle>
5.445

> <Pdih>
9.685

> <Idih>
0.000

> <Tether>
0.000

$$$$
VeraChem MOL file


 22 22  0  0  0  0  0  0  0  0999 V2000     
   21.2615   19.5147   21.4711 C   0  0  0  0  0  0  0  0  0  0  0  0
   20.7813   20.3961   21.0267 H   0  0  0  0  0  0  0  0  0  0  0  0
   22.1639   19.3470   20.8675 H   0  0  0  0  0  0  0  0  0  0  0  0
   20.3334   18.2823   21.3238 C   0  0  0  0  0  0  0  0  0  0  0  0
   20.1490   18.1336   20.2511 H   0  0  0  0  0  0  0  0  0  0  0  0
   20.8623   17.3811   21.6624 H   0  0  0  0  0  0  0  0  0  0  0  0
   18.9587   18.3681   22.0433 C   0  0  0  0  0  0  0  0  0  0  0  0
   18.9764   17.7671   22.9617 H   0  0  0  0  0  0  0  0  0  0  0  0
   18.2069   17.8855   21.4041 H   0  0  0  0  0  0  0  0  0  0  0  0
   18.4796   19.8061   22.3754 C   0  0  0  0  0  0  0  0  0  0  0  0
   18.5247   20.4193   21.4668 H   0  0  0  0  0  0  0  0  0  0  0  0
   17.4128   19.7632   22.6335 H   0  0  0  0  0  0  0  0  0  0  0  0
   19.2463   20.5311   23.5202 C   0  0  0  0  0  0  0  0  0  0  0  0
   19.4755   21.5517   23.1811 H   0  0  0  0  0  0  0  0  0  0  0  0
   20.5686   19.8654   23.9768 C   0  0  0  0  0  0  0  0  0  0  0  0
   20.9468   20.3956   24.8605 H   0  0  0  0  0  0  0  0  0  0  0  0
   20.3678   18.8439   24.3215 H   0  0  0  0  0  0  0  0  0  0  0  0
   21.6996   19.8401   22.9185 C   0  0  0  0  0  0  0  0  0  0  0  0
   22.2020   20.8170   22.9118 H   0  0  0  0  0  0  0  0  0  0  0  0
   22.4587   19.1130   23.2373 H   0  0  0  0  0  0  0  0  0  0  0  0
   18.3928   20.6074   24.6564 O   0  0  0  0  0  0  0  0  0  0  0  0
   18.8766   21.1167   25.3396 H   0  0  0  0  0  0  0  0  0  0  0  0
  1  2  1  0  0  0  0
  1  3  1  0  0  0  0
  1  4  1  0  0  0  0
  4  5  1  0  0  0  0
  4  6  1  0  0  0  0
  4  7  1  0  0  0  0
  7  8  1  0  0  0  0
  7  9  1  0  0  0  0
  7 10  1  0  0  0  0
 10 11  1  0  0  0  0
 10 12  1  0  0  0  0
 10 13  1  0  0  0  0
 13 14  1  0  0  0  0
 13 15  1  0  0  0  0
 15 16  1  0  0  0  0
 15 17  1  0  0  0  0
  1 18  1  0  0  0  0
 15 18  1  0  0  0  0
 18 19  1  0  0  0  0
 18 20  1  0  0  0  0
 13 21  1  0  0  0  0
 21 22  1  0  0  0  0
M  END
> <VConfSearch Rank>
321

> <Conf_Id>
141

> <Delta U+W>
0.000

> <U+W>
6.423

> <U>
8.781

> <W>
-2.358

> <W(PB)>
-4.373

> <W(SA)>
2.015

> <Valence>
13.328

> <Coulomb>
-8.387

> <VdW>
3.840

> <VdW6>
-9.744

> <VdW12>
13.584

> <Bond>
0.436

> <Angle>
3.478

> <Pdih>
9.415

> <Idih>
0.000

> <Tether>
0.000

$$$$
VeraChem MOL file


 22 22  0  0  0  0  0  0  0  0999 V2000     
   20.7425   19.0817   21.1739 C   0  0  0  0  0  0  0  0  0  0  0  0
   19.7533   19.0818   20.6964 H   0  0  0  0  0  0  0  0  0  0  0  0
   21.4600   18.8148   20.3860 H   0  0  0  0  0  0  0  0  0  0  0  0
   20.8265   17.9954   22.2732 C   0  0  0  0  0  0  0  0  0  0  0  0
   20.8016   17.0081   21.7920 H   0  0  0  0  0  0  0  0  0  0  0  0
   21.8023   18.0587   22.7739 H   0  0  0  0  0  0  0  0  0  0  0  0
   19.7032   18.0430   23.3344 C   0  0  0  0  0  0  0  0  0  0  0  0
   19.9119   17.2721   24.0888 H   0  0  0  0  0  0  0  0  0  0  0  0
   18.7498   17.7569   22.8696 H   0  0  0  0  0  0  0  0  0  0  0  0
   19.5388   19.4050   24.0521 C   0  0  0  0  0  0  0  0  0  0  0  0
   18.8873   19.2456   24.9214 H   0  0  0  0  0  0  0  0  0  0  0  0
   20.5011   19.7512   24.4510 H   0  0  0  0  0  0  0  0  0  0  0  0
   18.9089   20.4853   23.1445 C   0  0  0  0  0  0  0  0  0  0  0  0
   18.2070   19.9911   22.4575 H   0  0  0  0  0  0  0  0  0  0  0  0
   19.9259   21.2896   22.3030 C   0  0  0  0  0  0  0  0  0  0  0  0
   19.3718   21.7763   21.4901 H   0  0  0  0  0  0  0  0  0  0  0  0
   20.3402   22.1029   22.9137 H   0  0  0  0  0  0  0  0  0  0  0  0
   21.1060   20.4926   21.6930 C   0  0  0  0  0  0  0  0  0  0  0  0
   21.5210   21.0818   20.8639 H   0  0  0  0  0  0  0  0  0  0  0  0
   21.9159   20.4127   22.4309 H   0  0  0  0  0  0  0  0  0  0  0  0
   18.1862   21.4022   23.9571 O   0  0  0  0  0  0  0  0  0  0  0  0
   17.4979   20.8838   24.4241 H   0  0  0  0  0  0  0  0  0  0  0  0
  1  2  1  0  0  0  0
  1  3  1  0  0  0  0
  1  4  1  0  0  0  0
  4  5  1  0  0  0  0
  4  6  1  0  0  0  0
  4  7  1  0  0  0  0
  7  8  1  0  0  0  0
  7  9  1  0  0  0  0
  7 10  1  0  0  0  0
 10 11  1  0  0  0  0
 10 12  1  0  0  0  0
 10 13  1  0  0  0  0
 13 14  1  0  0  0  0
 13 15  1  0  0  0  0
 15 16  1  0  0  0  0
 15 17  1  0  0  0  0
  1 18  1  0  0  0  0
 15 18  1  0  0  0  0
 18 19  1  0  0  0  0
 18 20  1  0  0  0  0
 13 21  1  0  0  0  0
 21 22  1  0  0  0  0
M  END
> <VConfSearch Rank>
322

> <Conf_Id>
144

> <Delta U+W>
-3.291

> <U+W>
3.132

> <U>
5.411

> <W>
-2.279

> <W(PB)>
-4.300

> <W(SA)>
2.021

> <Valence>
11.909

> <Coulomb>
-8.733

> <VdW>
2.236

> <VdW6>
-8.936

> <VdW12>
11.172

> <Bond>
0.223

> <Angle>
2.457

> <Pdih>
9.228

> <Idih>
0.000

> <Tether>
0.000

$$$$
VeraChem MOL file


 22 22  0  0  0  0  0  0  0  0999 V2000     
   20.6167   18.0476   23.1813 C   0  0  0  0  0  0  0  0  0  0  0  0
   21.0737   17.0495   23.2248 H   0  0  0  0  0  0  0  0  0  0  0  0
   20.4637   18.3575   24.2240 H   0  0  0  0  0  0  0  0  0  0  0  0
   19.2654   17.9230   22.4393 C   0  0  0  0  0  0  0  0  0  0  0  0
   19.4410   17.9378   21.3550 H   0  0  0  0  0  0  0  0  0  0  0  0
   18.8327   16.9359   22.6524 H   0  0  0  0  0  0  0  0  0  0  0  0
   18.2121   18.9951   22.8096 C   0  0  0  0  0  0  0  0  0  0  0  0
   17.6883   18.6811   23.7228 H   0  0  0  0  0  0  0  0  0  0  0  0
   17.4490   19.0124   22.0193 H   0  0  0  0  0  0  0  0  0  0  0  0
   18.7435   20.4330   23.0288 C   0  0  0  0  0  0  0  0  0  0  0  0
   17.8913   21.1216   22.9501 H   0  0  0  0  0  0  0  0  0  0  0  0
   19.1094   20.5289   24.0592 H   0  0  0  0  0  0  0  0  0  0  0  0
   19.8543   20.8734   22.0492 C   0  0  0  0  0  0  0  0  0  0  0  0
   19.6774   20.4195   21.0637 H   0  0  0  0  0  0  0  0  0  0  0  0
   21.2678   20.4960   22.5477 C   0  0  0  0  0  0  0  0  0  0  0  0
   22.0091   21.0471   21.9537 H   0  0  0  0  0  0  0  0  0  0  0  0
   21.3944   20.8376   23.5833 H   0  0  0  0  0  0  0  0  0  0  0  0
   21.6133   18.9901   22.4647 C   0  0  0  0  0  0  0  0  0  0  0  0
   21.7013   18.6945   21.4103 H   0  0  0  0  0  0  0  0  0  0  0  0
   22.6106   18.8424   22.9010 H   0  0  0  0  0  0  0  0  0  0  0  0
   19.8007   22.2878   21.9195 O   0  0  0  0  0  0  0  0  0  0  0  0
   19.9604   22.6538   22.8137 H   0  0  0  0  0  0  0  0  0  0  0  0
  1  2  1  0  0  0  0
  1  3  1  0  0  0  0
  1  4  1  0  0  0  0
  4  5  1  0  0  0  0
  4  6  1  0  0  0  0
  4  7  1  0  0  0  0
  7  8  1  0  0  0  0
  7  9  1  0  0  0  0
  7 10  1  0  0  0  0
 10 11  1  0  0  0  0
 10 12  1  0  0  0  0
 10 13  1  0  0  0  0
 13 14  1  0  0  0  0
 13 15  1  0  0  0  0
 15 16  1  0  0  0  0
 15 17  1  0  0  0  0
  1 18  1  0  0  0  0
 15 18  1  0  0  0  0
 18 19  1  0  0  0  0
 18 20  1  0  0  0  0
 13 21  1  0  0  0  0
 21 22  1  0  0  0  0
M  END
> <VConfSearch Rank>
323

> <Conf_Id>
76

> <Delta U+W>
-3.175

> <U+W>
3.248

> <U>
5.336

> <W>
-2.088

> <W(PB)>
-4.098

> <W(SA)>
2.010

> <Valence>
12.390

> <Coulomb>
-9.270

> <VdW>
2.216

> <VdW6>
-8.967

> <VdW12>
11.183

> <Bond>
0.218

> <Angle>
2.426

> <Pdih>
9.745

> <Idih>
0.000

> <Tether>
0.000

$$$$
VeraChem MOL file


 22 22  0  0  0  0  0  0  0  0999 V2000     
   20.7443   18.2666   21.5070 C   0  0  0  0  0  0  0  0  0  0  0  0
   20.2455   17.3470   21.1719 H   0  0  0  0  0  0  0  0  0  0  0  0
   21.6868   18.3164   20.9448 H   0  0  0  0  0  0  0  0  0  0  0  0
   21.0663   18.1210   23.0136 C   0  0  0  0  0  0  0  0  0  0  0  0
   20.2552   17.5716   23.5104 H   0  0  0  0  0  0  0  0  0  0  0  0
   21.9553   17.4830   23.1105 H   0  0  0  0  0  0  0  0  0  0  0  0
   21.3192   19.4515   23.7602 C   0  0  0  0  0  0  0  0  0  0  0  0
   21.8625   20.1630   23.1236 H   0  0  0  0  0  0  0  0  0  0  0  0
   21.9771   19.2433   24.6147 H   0  0  0  0  0  0  0  0  0  0  0  0
   20.0174   20.0873   24.3109 C   0  0  0  0  0  0  0  0  0  0  0  0
   19.4612   19.3331   24.8822 H   0  0  0  0  0  0  0  0  0  0  0  0
   20.2876   20.8661   25.0360 H   0  0  0  0  0  0  0  0  0  0  0  0
   19.0700   20.7182   23.2652 C   0  0  0  0  0  0  0  0  0  0  0  0
   18.1315   20.9524   23.7882 H   0  0  0  0  0  0  0  0  0  0  0  0
   18.7084   19.8045   22.0673 C   0  0  0  0  0  0  0  0  0  0  0  0
   18.2592   18.8721   22.4329 H   0  0  0  0  0  0  0  0  0  0  0  0
   17.9196   20.3078   21.4934 H   0  0  0  0  0  0  0  0  0  0  0  0
   19.8812   19.4859   21.1039 C   0  0  0  0  0  0  0  0  0  0  0  0
   19.4737   19.2939   20.1021 H   0  0  0  0  0  0  0  0  0  0  0  0
   20.5262   20.3672   20.9911 H   0  0  0  0  0  0  0  0  0  0  0  0
   19.6335   21.9393   22.7970 O   0  0  0  0  0  0  0  0  0  0  0  0
   19.0307   22.2767   22.1033 H   0  0  0  0  0  0  0  0  0  0  0  0
  1  2  1  0  0  0  0
  1  3  1  0  0  0  0
  1  4  1  0  0  0  0
  4  5  1  0  0  0  0
  4  6  1  0  0  0  0
  4  7  1  0  0  0  0
  7  8  1  0  0  0  0
  7  9  1  0  0  0  0
  7 10  1  0  0  0  0
 10 11  1  0  0  0  0
 10 12  1  0  0  0  0
 10 13  1  0  0  0  0
 13 14  1  0  0  0  0
 13 15  1  0  0  0  0
 15 16  1  0  0  0  0
 15 17  1  0  0  0  0
  1 18  1  0  0  0  0
 15 18  1  0  0  0  0
 18 19  1  0  0  0  0
 18 20  1  0  0  0  0
 13 21  1  0  0  0  0
 21 22  1  0  0  0  0
M  END
> <VConfSearch Rank>
324

> <Conf_Id>
95

> <Delta U+W>
-2.289

> <U+W>
4.134

> <U>
6.373

> <W>
-2.240

> <W(PB)>
-4.254

> <W(SA)>
2.015

> <Valence>
12.093

> <Coulomb>
-8.058

> <VdW>
2.339

> <VdW6>
-9.683

> <VdW12>
12.022

> <Bond>
0.268

> <Angle>
3.005

> <Pdih>
8.820

> <Idih>
0.000

> <Tether>
0.000

$$$$
VeraChem MOL file


 22 22  0  0  0  0  0  0  0  0999 V2000     
   21.6560   19.9447   23.6854 C   0  0  0  0  0  0  0  0  0  0  0  0
   21.7604   20.2305   24.7410 H   0  0  0  0  0  0  0  0  0  0  0  0
   22.6802   19.8354   23.3037 H   0  0  0  0  0  0  0  0  0  0  0  0
   20.9633   21.1075   22.9355 C   0  0  0  0  0  0  0  0  0  0  0  0
   20.2152   21.5721   23.5919 H   0  0  0  0  0  0  0  0  0  0  0  0
   21.7149   21.8868   22.7497 H   0  0  0  0  0  0  0  0  0  0  0  0
   20.3004   20.7191   21.5934 C   0  0  0  0  0  0  0  0  0  0  0  0
   20.9036   19.9731   21.0582 H   0  0  0  0  0  0  0  0  0  0  0  0
   20.2803   21.6113   20.9531 H   0  0  0  0  0  0  0  0  0  0  0  0
   18.8403   20.2299   21.7677 C   0  0  0  0  0  0  0  0  0  0  0  0
   18.2889   20.9563   22.3786 H   0  0  0  0  0  0  0  0  0  0  0  0
   18.3472   20.2407   20.7870 H   0  0  0  0  0  0  0  0  0  0  0  0
   18.6611   18.8251   22.3875 C   0  0  0  0  0  0  0  0  0  0  0  0
   17.5891   18.7069   22.6016 H   0  0  0  0  0  0  0  0  0  0  0  0
   19.4184   18.5921   23.7189 C   0  0  0  0  0  0  0  0  0  0  0  0
   19.1102   19.3397   24.4610 H   0  0  0  0  0  0  0  0  0  0  0  0
   19.0880   17.6230   24.1145 H   0  0  0  0  0  0  0  0  0  0  0  0
   20.9647   18.5629   23.6018 C   0  0  0  0  0  0  0  0  0  0  0  0
   21.3674   17.9349   24.4078 H   0  0  0  0  0  0  0  0  0  0  0  0
   21.2589   18.0622   22.6699 H   0  0  0  0  0  0  0  0  0  0  0  0
   19.0345   17.8364   21.4326 O   0  0  0  0  0  0  0  0  0  0  0  0
   18.5433   18.0394   20.6106 H   0  0  0  0  0  0  0  0  0  0  0  0
  1  2  1  0  0  0  0
  1  3  1  0  0  0  0
  1  4  1  0  0  0  0
  4  5  1  0  0  0  0
  4  6  1  0  0  0  0
  4  7  1  0  0  0  0
  7  8  1  0  0  0  0
  7  9  1  0  0  0  0
  7 10  1  0  0  0  0
 10 11  1  0  0  0  0
 10 12  1  0  0  0  0
 10 13  1  0  0  0  0
 13 14  1  0  0  0  0
 13 15  1  0  0  0  0
 15 16  1  0  0  0  0
 15 17  1  0  0  0  0
  1 18  1  0  0  0  0
 15 18  1  0  0  0  0
 18 19  1  0  0  0  0
 18 20  1  0  0  0  0
 13 21  1  0  0  0  0
 21 22  1  0  0  0  0
M  END
> <VConfSearch Rank>
325

> <Conf_Id>
41

> <Delta U+W>
-2.114

> <U+W>
4.310

> <U>
6.598

> <W>
-2.289

> <W(PB)>
-4.294

> <W(SA)>
2.005

> <Valence>
12.082

> <Coulomb>
-7.801

> <VdW>
2.317

> <VdW6>
-9.658

> <VdW12>
11.975

> <Bond>
0.267

> <Angle>
3.051

> <Pdih>
8.764

> <Idih>
0.000

> <Tether>
0.000

$$$$
VeraChem MOL file


 22 22  0  0  0  0  0  0  0  0999 V2000     
   19.3331   21.0061   22.9497 C   0  0  0  0  0  0  0  0  0  0  0  0
   19.0818   22.0576   23.1437 H   0  0  0  0  0  0  0  0  0  0  0  0
   18.4690   20.5743   22.4262 H   0  0  0  0  0  0  0  0  0  0  0  0
   19.5493   20.3113   24.3127 C   0  0  0  0  0  0  0  0  0  0  0  0
   20.4526   20.7135   24.7911 H   0  0  0  0  0  0  0  0  0  0  0  0
   18.7146   20.5739   24.9767 H   0  0  0  0  0  0  0  0  0  0  0  0
   19.6454   18.7714   24.2429 C   0  0  0  0  0  0  0  0  0  0  0  0
   18.6674   18.3565   23.9649 H   0  0  0  0  0  0  0  0  0  0  0  0
   19.8456   18.3986   25.2563 H   0  0  0  0  0  0  0  0  0  0  0  0
   20.7448   18.2213   23.2942 C   0  0  0  0  0  0  0  0  0  0  0  0
   21.7089   18.6938   23.5209 H   0  0  0  0  0  0  0  0  0  0  0  0
   20.8764   17.1556   23.5213 H   0  0  0  0  0  0  0  0  0  0  0  0
   20.4488   18.3314   21.7762 C   0  0  0  0  0  0  0  0  0  0  0  0
   21.1342   17.6361   21.2701 H   0  0  0  0  0  0  0  0  0  0  0  0
   20.6970   19.7226   21.1375 C   0  0  0  0  0  0  0  0  0  0  0  0
   21.7038   19.7197   20.7000 H   0  0  0  0  0  0  0  0  0  0  0  0
   20.0142   19.8531   20.2877 H   0  0  0  0  0  0  0  0  0  0  0  0
   20.5908   20.9668   22.0537 C   0  0  0  0  0  0  0  0  0  0  0  0
   21.4927   21.0507   22.6750 H   0  0  0  0  0  0  0  0  0  0  0  0
   20.5922   21.8579   21.4113 H   0  0  0  0  0  0  0  0  0  0  0  0
   19.1182   17.9053   21.4957 O   0  0  0  0  0  0  0  0  0  0  0  0
   19.0030   17.9583   20.5252 H   0  0  0  0  0  0  0  0  0  0  0  0
  1  2  1  0  0  0  0
  1  3  1  0  0  0  0
  1  4  1  0  0  0  0
  4  5  1  0  0  0  0
  4  6  1  0  0  0  0
  4  7  1  0  0  0  0
  7  8  1  0  0  0  0
  7  9  1  0  0  0  0
  7 10  1  0  0  0  0
 10 11  1  0  0  0  0
 10 12  1  0  0  0  0
 10 13  1  0  0  0  0
 13 14  1  0  0  0  0
 13 15  1  0  0  0  0
 15 16  1  0  0  0  0
 15 17  1  0  0  0  0
  1 18  1  0  0  0  0
 15 18  1  0  0  0  0
 18 19  1  0  0  0  0
 18 20  1  0  0  0  0
 13 21  1  0  0  0  0
 21 22  1  0  0  0  0
M  END
> <VConfSearch Rank>
326

> <Conf_Id>
104

> <Delta U+W>
-1.172

> <U+W>
5.252

> <U>
7.482

> <W>
-2.230

> <W(PB)>
-4.220

> <W(SA)>
1.990

> <Valence>
12.309

> <Coulomb>
-7.084

> <VdW>
2.258

> <VdW6>
-9.770

> <VdW12>
12.028

> <Bond>
0.284

> <Angle>
3.491

> <Pdih>
8.535

> <Idih>
0.000

> <Tether>
0.000

$$$$
VeraChem MOL file


 22 22  0  0  0  0  0  0  0  0999 V2000     
   21.5354   18.9396   22.3222 C   0  0  0  0  0  0  0  0  0  0  0  0
   21.1812   17.9074   22.4471 H   0  0  0  0  0  0  0  0  0  0  0  0
   22.6051   18.8650   22.0832 H   0  0  0  0  0  0  0  0  0  0  0  0
   21.4001   19.7332   23.6418 C   0  0  0  0  0  0  0  0  0  0  0  0
   22.2397   19.4667   24.2986 H   0  0  0  0  0  0  0  0  0  0  0  0
   21.5288   20.8041   23.4369 H   0  0  0  0  0  0  0  0  0  0  0  0
   20.0888   19.5001   24.4341 C   0  0  0  0  0  0  0  0  0  0  0  0
   19.8947   20.3864   25.0540 H   0  0  0  0  0  0  0  0  0  0  0  0
   20.2536   18.6785   25.1446 H   0  0  0  0  0  0  0  0  0  0  0  0
   18.8134   19.1617   23.6156 C   0  0  0  0  0  0  0  0  0  0  0  0
   18.8423   18.1029   23.3276 H   0  0  0  0  0  0  0  0  0  0  0  0
   17.9474   19.2546   24.2838 H   0  0  0  0  0  0  0  0  0  0  0  0
   18.5399   20.0121   22.3538 C   0  0  0  0  0  0  0  0  0  0  0  0
   17.4657   19.9335   22.1330 H   0  0  0  0  0  0  0  0  0  0  0  0
   19.2914   19.4943   21.1066 C   0  0  0  0  0  0  0  0  0  0  0  0
   19.0256   18.4410   20.9481 H   0  0  0  0  0  0  0  0  0  0  0  0
   18.9081   20.0309   20.2289 H   0  0  0  0  0  0  0  0  0  0  0  0
   20.8345   19.6251   21.1253 C   0  0  0  0  0  0  0  0  0  0  0  0
   21.2210   19.1800   20.1983 H   0  0  0  0  0  0  0  0  0  0  0  0
   21.1190   20.6853   21.0842 H   0  0  0  0  0  0  0  0  0  0  0  0
   18.8640   21.3735   22.5901 O   0  0  0  0  0  0  0  0  0  0  0  0
   19.8039   21.3517   22.8591 H   0  0  0  0  0  0  0  0  0  0  0  0
  1  2  1  0  0  0  0
  1  3  1  0  0  0  0
  1  4  1  0  0  0  0
  4  5  1  0  0  0  0
  4  6  1  0  0  0  0
  4  7  1  0  0  0  0
  7  8  1  0  0  0  0
  7  9  1  0  0  0  0
  7 10  1  0  0  0  0
 10 11  1  0  0  0  0
 10 12  1  0  0  0  0
 10 13  1  0  0  0  0
 13 14  1  0  0  0  0
 13 15  1  0  0  0  0
 15 16  1  0  0  0  0
 15 17  1  0  0  0  0
  1 18  1  0  0  0  0
 15 18  1  0  0  0  0
 18 19  1  0  0  0  0
 18 20  1  0  0  0  0
 13 21  1  0  0  0  0
 21 22  1  0  0  0  0
M  END
> <VConfSearch Rank>
327

> <Conf_Id>
99

> <Delta U+W>
-3.852

> <U+W>
2.572

> <U>
3.922

> <W>
-1.350

> <W(PB)>
-3.345

> <W(SA)>
1.995

> <Valence>
12.571

> <Coulomb>
-10.581

> <VdW>
1.932

> <VdW6>
-10.483

> <VdW12>
12.415

> <Bond>
0.268

> <Angle>
3.728

> <Pdih>
8.575

> <Idih>
0.000

> <Tether>
0.000

$$$$
VeraChem MOL file


 22 22  0  0  0  0  0  0  0  0999 V2000     
   19.1950   20.8632   23.3024 C   0  0  0  0  0  0  0  0  0  0  0  0
   18.3937   21.6121   23.2357 H   0  0  0  0  0  0  0  0  0  0  0  0
   19.6424   21.0148   24.2938 H   0  0  0  0  0  0  0  0  0  0  0  0
   20.2371   21.1786   22.1895 C   0  0  0  0  0  0  0  0  0  0  0  0
   19.8870   22.0642   21.6413 H   0  0  0  0  0  0  0  0  0  0  0  0
   21.1911   21.4835   22.6400 H   0  0  0  0  0  0  0  0  0  0  0  0
   20.4882   20.0517   21.1553 C   0  0  0  0  0  0  0  0  0  0  0  0
   21.0832   20.4654   20.3298 H   0  0  0  0  0  0  0  0  0  0  0  0
   19.5390   19.7575   20.6904 H   0  0  0  0  0  0  0  0  0  0  0  0
   21.2248   18.7909   21.6868 C   0  0  0  0  0  0  0  0  0  0  0  0
   20.9957   17.9520   21.0171 H   0  0  0  0  0  0  0  0  0  0  0  0
   22.3064   18.9538   21.5881 H   0  0  0  0  0  0  0  0  0  0  0  0
   20.9517   18.3434   23.1440 C   0  0  0  0  0  0  0  0  0  0  0  0
   21.3731   17.3337   23.2523 H   0  0  0  0  0  0  0  0  0  0  0  0
   19.4645   18.2580   23.5672 C   0  0  0  0  0  0  0  0  0  0  0  0
   19.0274   17.3560   23.1199 H   0  0  0  0  0  0  0  0  0  0  0  0
   19.4385   18.0859   24.6515 H   0  0  0  0  0  0  0  0  0  0  0  0
   18.5372   19.4610   23.2389 C   0  0  0  0  0  0  0  0  0  0  0  0
   18.0736   19.3136   22.2556 H   0  0  0  0  0  0  0  0  0  0  0  0
   17.6969   19.4402   23.9461 H   0  0  0  0  0  0  0  0  0  0  0  0
   21.6542   19.1888   24.0412 O   0  0  0  0  0  0  0  0  0  0  0  0
   21.2453   20.0673   23.9075 H   0  0  0  0  0  0  0  0  0  0  0  0
  1  2  1  0  0  0  0
  1  3  1  0  0  0  0
  1  4  1  0  0  0  0
  4  5  1  0  0  0  0
  4  6  1  0  0  0  0
  4  7  1  0  0  0  0
  7  8  1  0  0  0  0
  7  9  1  0  0  0  0
  7 10  1  0  0  0  0
 10 11  1  0  0  0  0
 10 12  1  0  0  0  0
 10 13  1  0  0  0  0
 13 14  1  0  0  0  0
 13 15  1  0  0  0  0
 15 16  1  0  0  0  0
 15 17  1  0  0  0  0
  1 18  1  0  0  0  0
 15 18  1  0  0  0  0
 18 19  1  0  0  0  0
 18 20  1  0  0  0  0
 13 21  1  0  0  0  0
 21 22  1  0  0  0  0
M  END
> <VConfSearch Rank>
328

> <Conf_Id>
98

> <Delta U+W>
0.930

> <U+W>
7.353

> <U>
8.455

> <W>
-1.102

> <W(PB)>
-3.101

> <W(SA)>
2.000

> <Valence>
15.601

> <Coulomb>
-10.573

> <VdW>
3.427

> <VdW6>
-11.360

> <VdW12>
14.787

> <Bond>
0.471

> <Angle>
5.445

> <Pdih>
9.685

> <Idih>
0.000

> <Tether>
0.000

$$$$
VeraChem MOL file


 22 22  0  0  0  0  0  0  0  0999 V2000     
   19.7229   19.5551   24.3486 C   0  0  0  0  0  0  0  0  0  0  0  0
   18.6937   19.8560   24.1143 H   0  0  0  0  0  0  0  0  0  0  0  0
   19.7476   19.4507   25.4419 H   0  0  0  0  0  0  0  0  0  0  0  0
   20.7046   20.6821   23.9383 C   0  0  0  0  0  0  0  0  0  0  0  0
   20.4207   21.5863   24.4939 H   0  0  0  0  0  0  0  0  0  0  0  0
   21.7178   20.4293   24.2792 H   0  0  0  0  0  0  0  0  0  0  0  0
   20.7485   21.0376   22.4263 C   0  0  0  0  0  0  0  0  0  0  0  0
   21.6477   20.6091   21.9648 H   0  0  0  0  0  0  0  0  0  0  0  0
   20.8740   22.1249   22.3336 H   0  0  0  0  0  0  0  0  0  0  0  0
   19.4970   20.6108   21.6143 C   0  0  0  0  0  0  0  0  0  0  0  0
   18.5969   20.9882   22.1154 H   0  0  0  0  0  0  0  0  0  0  0  0
   19.5196   21.1307   20.6470 H   0  0  0  0  0  0  0  0  0  0  0  0
   19.3388   19.0827   21.3616 C   0  0  0  0  0  0  0  0  0  0  0  0
   18.2961   18.8096   21.5789 H   0  0  0  0  0  0  0  0  0  0  0  0
   20.2635   18.1596   22.1940 C   0  0  0  0  0  0  0  0  0  0  0  0
   20.1459   17.1268   21.8410 H   0  0  0  0  0  0  0  0  0  0  0  0
   21.3122   18.4112   21.9950 H   0  0  0  0  0  0  0  0  0  0  0  0
   20.0111   18.1703   23.7224 C   0  0  0  0  0  0  0  0  0  0  0  0
   19.1621   17.5105   23.9471 H   0  0  0  0  0  0  0  0  0  0  0  0
   20.8810   17.7229   24.2222 H   0  0  0  0  0  0  0  0  0  0  0  0
   19.6028   18.8235   19.9875 O   0  0  0  0  0  0  0  0  0  0  0  0
   19.4406   17.8679   19.8439 H   0  0  0  0  0  0  0  0  0  0  0  0
  1  2  1  0  0  0  0
  1  3  1  0  0  0  0
  1  4  1  0  0  0  0
  4  5  1  0  0  0  0
  4  6  1  0  0  0  0
  4  7  1  0  0  0  0
  7  8  1  0  0  0  0
  7  9  1  0  0  0  0
  7 10  1  0  0  0  0
 10 11  1  0  0  0  0
 10 12  1  0  0  0  0
 10 13  1  0  0  0  0
 13 14  1  0  0  0  0
 13 15  1  0  0  0  0
 15 16  1  0  0  0  0
 15 17  1  0  0  0  0
  1 18  1  0  0  0  0
 15 18  1  0  0  0  0
 18 19  1  0  0  0  0
 18 20  1  0  0  0  0
 13 21  1  0  0  0  0
 21 22  1  0  0  0  0
M  END
> <VConfSearch Rank>
329

> <Conf_Id>
141

> <Delta U+W>
0.000

> <U+W>
6.423

> <U>
8.781

> <W>
-2.358

> <W(PB)>
-4.373

> <W(SA)>
2.015

> <Valence>
13.328

> <Coulomb>
-8.387

> <VdW>
3.840

> <VdW6>
-9.744

> <VdW12>
13.584

> <Bond>
0.436

> <Angle>
3.478

> <Pdih>
9.415

> <Idih>
0.000

> <Tether>
0.000

$$$$
VeraChem MOL file


 22 22  0  0  0  0  0  0  0  0999 V2000     
   19.8466   20.2487   21.0362 C   0  0  0  0  0  0  0  0  0  0  0  0
   20.1879   21.2216   21.4150 H   0  0  0  0  0  0  0  0  0  0  0  0
   19.7278   20.3701   19.9508 H   0  0  0  0  0  0  0  0  0  0  0  0
   18.4619   19.8814   21.6220 C   0  0  0  0  0  0  0  0  0  0  0  0
   17.7124   20.5680   21.2053 H   0  0  0  0  0  0  0  0  0  0  0  0
   18.1740   18.8794   21.2754 H   0  0  0  0  0  0  0  0  0  0  0  0
   18.3624   19.9372   23.1638 C   0  0  0  0  0  0  0  0  0  0  0  0
   17.3607   19.5928   23.4550 H   0  0  0  0  0  0  0  0  0  0  0  0
   18.4282   20.9823   23.4961 H   0  0  0  0  0  0  0  0  0  0  0  0
   19.4153   19.0891   23.9183 C   0  0  0  0  0  0  0  0  0  0  0  0
   19.1005   19.0264   24.9683 H   0  0  0  0  0  0  0  0  0  0  0  0
   19.4254   18.0585   23.5404 H   0  0  0  0  0  0  0  0  0  0  0  0
   20.8320   19.7026   23.8551 C   0  0  0  0  0  0  0  0  0  0  0  0
   20.7323   20.7973   23.8323 H   0  0  0  0  0  0  0  0  0  0  0  0
   21.6666   19.2661   22.6294 C   0  0  0  0  0  0  0  0  0  0  0  0
   22.4887   19.9843   22.5157 H   0  0  0  0  0  0  0  0  0  0  0  0
   22.1402   18.2975   22.8386 H   0  0  0  0  0  0  0  0  0  0  0  0
   20.9127   19.1552   21.2805 C   0  0  0  0  0  0  0  0  0  0  0  0
   21.6557   19.1943   20.4723 H   0  0  0  0  0  0  0  0  0  0  0  0
   20.4445   18.1646   21.2016 H   0  0  0  0  0  0  0  0  0  0  0  0
   21.5451   19.3315   25.0286 O   0  0  0  0  0  0  0  0  0  0  0  0
   21.0382   19.6835   25.7900 H   0  0  0  0  0  0  0  0  0  0  0  0
  1  2  1  0  0  0  0
  1  3  1  0  0  0  0
  1  4  1  0  0  0  0
  4  5  1  0  0  0  0
  4  6  1  0  0  0  0
  4  7  1  0  0  0  0
  7  8  1  0  0  0  0
  7  9  1  0  0  0  0
  7 10  1  0  0  0  0
 10 11  1  0  0  0  0
 10 12  1  0  0  0  0
 10 13  1  0  0  0  0
 13 14  1  0  0  0  0
 13 15  1  0  0  0  0
 15 16  1  0  0  0  0
 15 17  1  0  0  0  0
  1 18  1  0  0  0  0
 15 18  1  0  0  0  0
 18 19  1  0  0  0  0
 18 20  1  0  0  0  0
 13 21  1  0  0  0  0
 21 22  1  0  0  0  0
M  END
> <VConfSearch Rank>
330

> <Conf_Id>
144

> <Delta U+W>
-3.291

> <U+W>
3.132

> <U>
5.411

> <W>
-2.279

> <W(PB)>
-4.300

> <W(SA)>
2.021

> <Valence>
11.909

> <Coulomb>
-8.733

> <VdW>
2.236

> <VdW6>
-8.936

> <VdW12>
11.172

> <Bond>
0.223

> <Angle>
2.457

> <Pdih>
9.228

> <Idih>
0.000

> <Tether>
0.000

$$$$
VeraChem MOL file


 22 22  0  0  0  0  0  0  0  0999 V2000     
   20.4774   18.7188   24.0740 C   0  0  0  0  0  0  0  0  0  0  0  0
   21.0293   18.3969   24.9677 H   0  0  0  0  0  0  0  0  0  0  0  0
   19.6276   18.0295   23.9769 H   0  0  0  0  0  0  0  0  0  0  0  0
   21.4253   18.5996   22.8577 C   0  0  0  0  0  0  0  0  0  0  0  0
   22.0651   19.4910   22.8041 H   0  0  0  0  0  0  0  0  0  0  0  0
   22.1106   17.7568   23.0225 H   0  0  0  0  0  0  0  0  0  0  0  0
   20.7219   18.3825   21.4961 C   0  0  0  0  0  0  0  0  0  0  0  0
   20.5030   17.3129   21.3734 H   0  0  0  0  0  0  0  0  0  0  0  0
   21.4344   18.6344   20.6987 H   0  0  0  0  0  0  0  0  0  0  0  0
   19.4097   19.1724   21.2674 C   0  0  0  0  0  0  0  0  0  0  0  0
   19.2115   19.1889   20.1872 H   0  0  0  0  0  0  0  0  0  0  0  0
   18.5735   18.6196   21.7149 H   0  0  0  0  0  0  0  0  0  0  0  0
   19.4162   20.6182   21.8126 C   0  0  0  0  0  0  0  0  0  0  0  0
   20.4243   21.0451   21.7122 H   0  0  0  0  0  0  0  0  0  0  0  0
   18.9643   20.6970   23.2886 C   0  0  0  0  0  0  0  0  0  0  0  0
   18.7475   21.7451   23.5345 H   0  0  0  0  0  0  0  0  0  0  0  0
   18.0178   20.1546   23.4113 H   0  0  0  0  0  0  0  0  0  0  0  0
   19.9898   20.1670   24.3187 C   0  0  0  0  0  0  0  0  0  0  0  0
   20.8554   20.8427   24.3514 H   0  0  0  0  0  0  0  0  0  0  0  0
   19.5322   20.2186   25.3161 H   0  0  0  0  0  0  0  0  0  0  0  0
   18.5107   21.3922   21.0372 O   0  0  0  0  0  0  0  0  0  0  0  0
   17.6287   20.9817   21.1504 H   0  0  0  0  0  0  0  0  0  0  0  0
  1  2  1  0  0  0  0
  1  3  1  0  0  0  0
  1  4  1  0  0  0  0
  4  5  1  0  0  0  0
  4  6  1  0  0  0  0
  4  7  1  0  0  0  0
  7  8  1  0  0  0  0
  7  9  1  0  0  0  0
  7 10  1  0  0  0  0
 10 11  1  0  0  0  0
 10 12  1  0  0  0  0
 10 13  1  0  0  0  0
 13 14  1  0  0  0  0
 13 15  1  0  0  0  0
 15 16  1  0  0  0  0
 15 17  1  0  0  0  0
  1 18  1  0  0  0  0
 15 18  1  0  0  0  0
 18 19  1  0  0  0  0
 18 20  1  0  0  0  0
 13 21  1  0  0  0  0
 21 22  1  0  0  0  0
M  END
> <VConfSearch Rank>
331

> <Conf_Id>
76

> <Delta U+W>
-3.175

> <U+W>
3.248

> <U>
5.336

> <W>
-2.088

> <W(PB)>
-4.098

> <W(SA)>
2.010

> <Valence>
12.390

> <Coulomb>
-9.270

> <VdW>
2.216

> <VdW6>
-8.967

> <VdW12>
11.183

> <Bond>
0.218

> <Angle>
2.426

> <Pdih>
9.745

> <Idih>
0.000

> <Tether>
0.000

$$$$
VeraChem MOL file


 22 22  0  0  0  0  0  0  0  0999 V2000     
   21.4598   20.2549   21.6409 C   0  0  0  0  0  0  0  0  0  0  0  0
   22.3726   19.7360   21.3180 H   0  0  0  0  0  0  0  0  0  0  0  0
   21.4898   21.2403   21.1561 H   0  0  0  0  0  0  0  0  0  0  0  0
   21.5299   20.4483   23.1746 C   0  0  0  0  0  0  0  0  0  0  0  0
   22.0083   19.5723   23.6331 H   0  0  0  0  0  0  0  0  0  0  0  0
   22.2033   21.2916   23.3800 H   0  0  0  0  0  0  0  0  0  0  0  0
   20.1707   20.7117   23.8637 C   0  0  0  0  0  0  0  0  0  0  0  0
   19.5260   21.3409   23.2349 H   0  0  0  0  0  0  0  0  0  0  0  0
   20.3587   21.2878   24.7797 H   0  0  0  0  0  0  0  0  0  0  0  0
   19.4404   19.4061   24.2689 C   0  0  0  0  0  0  0  0  0  0  0  0
   20.1309   18.7670   24.8339 H   0  0  0  0  0  0  0  0  0  0  0  0
   18.6333   19.6590   24.9689 H   0  0  0  0  0  0  0  0  0  0  0  0
   18.8284   18.5795   23.1151 C   0  0  0  0  0  0  0  0  0  0  0  0
   18.5179   17.6163   23.5452 H   0  0  0  0  0  0  0  0  0  0  0  0
   19.7939   18.2658   21.9447 C   0  0  0  0  0  0  0  0  0  0  0  0
   20.6797   17.7400   22.3238 H   0  0  0  0  0  0  0  0  0  0  0  0
   19.2885   17.5529   21.2805 H   0  0  0  0  0  0  0  0  0  0  0  0
   20.2265   19.4927   21.1003 C   0  0  0  0  0  0  0  0  0  0  0  0
   20.4585   19.1562   20.0809 H   0  0  0  0  0  0  0  0  0  0  0  0
   19.3859   20.1906   20.9918 H   0  0  0  0  0  0  0  0  0  0  0  0
   17.6665   19.2425   22.6270 O   0  0  0  0  0  0  0  0  0  0  0  0
   17.3426   18.7155   21.8683 H   0  0  0  0  0  0  0  0  0  0  0  0
  1  2  1  0  0  0  0
  1  3  1  0  0  0  0
  1  4  1  0  0  0  0
  4  5  1  0  0  0  0
  4  6  1  0  0  0  0
  4  7  1  0  0  0  0
  7  8  1  0  0  0  0
  7  9  1  0  0  0  0
  7 10  1  0  0  0  0
 10 11  1  0  0  0  0
 10 12  1  0  0  0  0
 10 13  1  0  0  0  0
 13 14  1  0  0  0  0
 13 15  1  0  0  0  0
 15 16  1  0  0  0  0
 15 17  1  0  0  0  0
  1 18  1  0  0  0  0
 15 18  1  0  0  0  0
 18 19  1  0  0  0  0
 18 20  1  0  0  0  0
 13 21  1  0  0  0  0
 21 22  1  0  0  0  0
M  END
> <VConfSearch Rank>
332

> <Conf_Id>
95

> <Delta U+W>
-2.289

> <U+W>
4.134

> <U>
6.373

> <W>
-2.240

> <W(PB)>
-4.254

> <W(SA)>
2.015

> <Valence>
12.093

> <Coulomb>
-8.058

> <VdW>
2.339

> <VdW6>
-9.683

> <VdW12>
12.022

> <Bond>
0.268

> <Angle>
3.005

> <Pdih>
8.820

> <Idih>
0.000

> <Tether>
0.000

$$$$
VeraChem MOL file


 22 22  0  0  0  0  0  0  0  0999 V2000     
   19.2348   17.9898   23.2651 C   0  0  0  0  0  0  0  0  0  0  0  0
   18.7657   17.2199   22.6375 H   0  0  0  0  0  0  0  0  0  0  0  0
   19.1818   17.6086   24.2939 H   0  0  0  0  0  0  0  0  0  0  0  0
   18.3860   19.2797   23.1644 C   0  0  0  0  0  0  0  0  0  0  0  0
   17.9929   19.3803   22.1437 H   0  0  0  0  0  0  0  0  0  0  0  0
   17.5040   19.1564   23.8076 H   0  0  0  0  0  0  0  0  0  0  0  0
   19.1207   20.5806   23.5637 C   0  0  0  0  0  0  0  0  0  0  0  0
   19.7963   20.4060   24.4122 H   0  0  0  0  0  0  0  0  0  0  0  0
   18.3700   21.3013   23.9149 H   0  0  0  0  0  0  0  0  0  0  0  0
   19.8776   21.2278   22.3764 C   0  0  0  0  0  0  0  0  0  0  0  0
   19.1975   21.3090   21.5187 H   0  0  0  0  0  0  0  0  0  0  0  0
   20.1327   22.2613   22.6443 H   0  0  0  0  0  0  0  0  0  0  0  0
   21.1682   20.5108   21.9181 C   0  0  0  0  0  0  0  0  0  0  0  0
   21.4779   20.9858   20.9760 H   0  0  0  0  0  0  0  0  0  0  0  0
   21.0132   18.9958   21.6333 C   0  0  0  0  0  0  0  0  0  0  0  0
   20.2391   18.8349   20.8722 H   0  0  0  0  0  0  0  0  0  0  0  0
   21.9532   18.6529   21.1820 H   0  0  0  0  0  0  0  0  0  0  0  0
   20.7278   18.1164   22.8786 C   0  0  0  0  0  0  0  0  0  0  0  0
   21.1149   17.1056   22.6925 H   0  0  0  0  0  0  0  0  0  0  0  0
   21.2981   18.4912   23.7388 H   0  0  0  0  0  0  0  0  0  0  0  0
   22.1951   20.7251   22.8816 O   0  0  0  0  0  0  0  0  0  0  0  0
   22.2389   21.6907   23.0361 H   0  0  0  0  0  0  0  0  0  0  0  0
  1  2  1  0  0  0  0
  1  3  1  0  0  0  0
  1  4  1  0  0  0  0
  4  5  1  0  0  0  0
  4  6  1  0  0  0  0
  4  7  1  0  0  0  0
  7  8  1  0  0  0  0
  7  9  1  0  0  0  0
  7 10  1  0  0  0  0
 10 11  1  0  0  0  0
 10 12  1  0  0  0  0
 10 13  1  0  0  0  0
 13 14  1  0  0  0  0
 13 15  1  0  0  0  0
 15 16  1  0  0  0  0
 15 17  1  0  0  0  0
  1 18  1  0  0  0  0
 15 18  1  0  0  0  0
 18 19  1  0  0  0  0
 18 20  1  0  0  0  0
 13 21  1  0  0  0  0
 21 22  1  0  0  0  0
M  END
> <VConfSearch Rank>
333

> <Conf_Id>
41

> <Delta U+W>
-2.114

> <U+W>
4.310

> <U>
6.598

> <W>
-2.289

> <W(PB)>
-4.294

> <W(SA)>
2.005

> <Valence>
12.082

> <Coulomb>
-7.801

> <VdW>
2.317

> <VdW6>
-9.658

> <VdW12>
11.975

> <Bond>
0.267

> <Angle>
3.051

> <Pdih>
8.764

> <Idih>
0.000

> <Tether>
0.000

$$$$
VeraChem MOL file


 22 22  0  0  0  0  0  0  0  0999 V2000     
   21.4717   20.4511   22.5688 C   0  0  0  0  0  0  0  0  0  0  0  0
   22.2219   21.2519   22.5188 H   0  0  0  0  0  0  0  0  0  0  0  0
   22.0273   19.5189   22.7405 H   0  0  0  0  0  0  0  0  0  0  0  0
   20.7353   20.4063   21.2112 C   0  0  0  0  0  0  0  0  0  0  0  0
   20.1374   21.3193   21.0871 H   0  0  0  0  0  0  0  0  0  0  0  0
   21.4824   20.4239   20.4061 H   0  0  0  0  0  0  0  0  0  0  0  0
   19.8343   19.1686   21.0076 C   0  0  0  0  0  0  0  0  0  0  0  0
   20.4608   18.2710   20.9199 H   0  0  0  0  0  0  0  0  0  0  0  0
   19.3316   19.2721   20.0367 H   0  0  0  0  0  0  0  0  0  0  0  0
   18.7502   18.9550   22.0985 C   0  0  0  0  0  0  0  0  0  0  0  0
   18.1731   19.8773   22.2418 H   0  0  0  0  0  0  0  0  0  0  0  0
   18.0357   18.2148   21.7162 H   0  0  0  0  0  0  0  0  0  0  0  0
   19.2582   18.4342   23.4677 C   0  0  0  0  0  0  0  0  0  0  0  0
   18.3809   18.0385   23.9998 H   0  0  0  0  0  0  0  0  0  0  0  0
   19.8874   19.4974   24.4051 C   0  0  0  0  0  0  0  0  0  0  0  0
   19.1071   19.8456   25.0943 H   0  0  0  0  0  0  0  0  0  0  0  0
   20.6390   19.0129   25.0421 H   0  0  0  0  0  0  0  0  0  0  0  0
   20.5245   20.7490   23.7520 C   0  0  0  0  0  0  0  0  0  0  0  0
   19.7369   21.4444   23.4317 H   0  0  0  0  0  0  0  0  0  0  0  0
   21.0896   21.2821   24.5287 H   0  0  0  0  0  0  0  0  0  0  0  0
   20.1723   17.3566   23.2830 O   0  0  0  0  0  0  0  0  0  0  0  0
   20.4262   17.0450   24.1754 H   0  0  0  0  0  0  0  0  0  0  0  0
  1  2  1  0  0  0  0
  1  3  1  0  0  0  0
  1  4  1  0  0  0  0
  4  5  1  0  0  0  0
  4  6  1  0  0  0  0
  4  7  1  0  0  0  0
  7  8  1  0  0  0  0
  7  9  1  0  0  0  0
  7 10  1  0  0  0  0
 10 11  1  0  0  0  0
 10 12  1  0  0  0  0
 10 13  1  0  0  0  0
 13 14  1  0  0  0  0
 13 15  1  0  0  0  0
 15 16  1  0  0  0  0
 15 17  1  0  0  0  0
  1 18  1  0  0  0  0
 15 18  1  0  0  0  0
 18 19  1  0  0  0  0
 18 20  1  0  0  0  0
 13 21  1  0  0  0  0
 21 22  1  0  0  0  0
M  END
> <VConfSearch Rank>
334

> <Conf_Id>
104

> <Delta U+W>
-1.172

> <U+W>
5.252

> <U>
7.482

> <W>
-2.230

> <W(PB)>
-4.220

> <W(SA)>
1.990

> <Valence>
12.309

> <Coulomb>
-7.084

> <VdW>
2.258

> <VdW6>
-9.770

> <VdW12>
12.028

> <Bond>
0.284

> <Angle>
3.491

> <Pdih>
8.535

> <Idih>
0.000

> <Tether>
0.000

$$$$
VeraChem MOL file


 22 22  0  0  0  0  0  0  0  0999 V2000     
   18.9828   18.5696   21.9612 C   0  0  0  0  0  0  0  0  0  0  0  0
   19.5091   17.6690   22.3055 H   0  0  0  0  0  0  0  0  0  0  0  0
   18.1279   18.2127   21.3706 H   0  0  0  0  0  0  0  0  0  0  0  0
   19.8826   19.4125   21.0289 C   0  0  0  0  0  0  0  0  0  0  0  0
   19.8732   18.9584   20.0284 H   0  0  0  0  0  0  0  0  0  0  0  0
   19.4362   20.4064   20.8937 H   0  0  0  0  0  0  0  0  0  0  0  0
   21.3617   19.5525   21.4696 C   0  0  0  0  0  0  0  0  0  0  0  0
   21.7672   20.4779   21.0378 H   0  0  0  0  0  0  0  0  0  0  0  0
   21.9397   18.7392   21.0099 H   0  0  0  0  0  0  0  0  0  0  0  0
   21.6550   19.5306   22.9943 C   0  0  0  0  0  0  0  0  0  0  0  0
   21.6347   18.4919   23.3488 H   0  0  0  0  0  0  0  0  0  0  0  0
   22.6893   19.8659   23.1453 H   0  0  0  0  0  0  0  0  0  0  0  0
   20.7368   20.3824   23.9006 C   0  0  0  0  0  0  0  0  0  0  0  0
   21.2872   20.5781   24.8321 H   0  0  0  0  0  0  0  0  0  0  0  0
   19.4357   19.6483   24.2962 C   0  0  0  0  0  0  0  0  0  0  0  0
   19.7006   18.6955   24.7727 H   0  0  0  0  0  0  0  0  0  0  0  0
   18.9332   20.2380   25.0741 H   0  0  0  0  0  0  0  0  0  0  0  0
   18.4222   19.3752   23.1574 C   0  0  0  0  0  0  0  0  0  0  0  0
   17.5788   18.8160   23.5848 H   0  0  0  0  0  0  0  0  0  0  0  0
   17.9973   20.3235   22.8016 H   0  0  0  0  0  0  0  0  0  0  0  0
   20.4302   21.6200   23.2773 O   0  0  0  0  0  0  0  0  0  0  0  0
   20.0223   21.3639   22.4262 H   0  0  0  0  0  0  0  0  0  0  0  0
  1  2  1  0  0  0  0
  1  3  1  0  0  0  0
  1  4  1  0  0  0  0
  4  5  1  0  0  0  0
  4  6  1  0  0  0  0
  4  7  1  0  0  0  0
  7  8  1  0  0  0  0
  7  9  1  0  0  0  0
  7 10  1  0  0  0  0
 10 11  1  0  0  0  0
 10 12  1  0  0  0  0
 10 13  1  0  0  0  0
 13 14  1  0  0  0  0
 13 15  1  0  0  0  0
 15 16  1  0  0  0  0
 15 17  1  0  0  0  0
  1 18  1  0  0  0  0
 15 18  1  0  0  0  0
 18 19  1  0  0  0  0
 18 20  1  0  0  0  0
 13 21  1  0  0  0  0
 21 22  1  0  0  0  0
M  END
> <VConfSearch Rank>
335

> <Conf_Id>
99

> <Delta U+W>
-3.852

> <U+W>
2.572

> <U>
3.922

> <W>
-1.350

> <W(PB)>
-3.345

> <W(SA)>
1.995

> <Valence>
12.571

> <Coulomb>
-10.581

> <VdW>
1.932

> <VdW6>
-10.483

> <VdW12>
12.415

> <Bond>
0.268

> <Angle>
3.728

> <Pdih>
8.575

> <Idih>
0.000

> <Tether>
0.000

$$$$
VeraChem MOL file


 22 22  0  0  0  0  0  0  0  0999 V2000     
   19.8436   20.4272   21.2524 C   0  0  0  0  0  0  0  0  0  0  0  0
   20.1770   20.7598   20.2597 H   0  0  0  0  0  0  0  0  0  0  0  0
   18.8341   20.8442   21.3664 H   0  0  0  0  0  0  0  0  0  0  0  0
   20.8028   21.0470   22.3106 C   0  0  0  0  0  0  0  0  0  0  0  0
   21.5512   21.6480   21.7759 H   0  0  0  0  0  0  0  0  0  0  0  0
   20.2595   21.7652   22.9391 H   0  0  0  0  0  0  0  0  0  0  0  0
   21.5621   20.0396   23.2113 C   0  0  0  0  0  0  0  0  0  0  0  0
   22.3357   20.5867   23.7672 H   0  0  0  0  0  0  0  0  0  0  0  0
   22.1205   19.3318   22.5862 H   0  0  0  0  0  0  0  0  0  0  0  0
   20.6977   19.2609   24.2415 C   0  0  0  0  0  0  0  0  0  0  0  0
   21.2360   18.3453   24.5184 H   0  0  0  0  0  0  0  0  0  0  0  0
   20.6399   19.8537   25.1642 H   0  0  0  0  0  0  0  0  0  0  0  0
   19.2514   18.8774   23.8423 C   0  0  0  0  0  0  0  0  0  0  0  0
   18.8953   18.1535   24.5892 H   0  0  0  0  0  0  0  0  0  0  0  0
   19.0770   18.2141   22.4539 C   0  0  0  0  0  0  0  0  0  0  0  0
   19.4234   17.1746   22.5196 H   0  0  0  0  0  0  0  0  0  0  0  0
   17.9995   18.1484   22.2518 H   0  0  0  0  0  0  0  0  0  0  0  0
   19.7662   18.8792   21.2302 C   0  0  0  0  0  0  0  0  0  0  0  0
   20.7713   18.4600   21.0982 H   0  0  0  0  0  0  0  0  0  0  0  0
   19.2187   18.5726   20.3286 H   0  0  0  0  0  0  0  0  0  0  0  0
   18.4138   20.0191   23.9331 O   0  0  0  0  0  0  0  0  0  0  0  0
   18.7691   20.6275   23.2545 H   0  0  0  0  0  0  0  0  0  0  0  0
  1  2  1  0  0  0  0
  1  3  1  0  0  0  0
  1  4  1  0  0  0  0
  4  5  1  0  0  0  0
  4  6  1  0  0  0  0
  4  7  1  0  0  0  0
  7  8  1  0  0  0  0
  7  9  1  0  0  0  0
  7 10  1  0  0  0  0
 10 11  1  0  0  0  0
 10 12  1  0  0  0  0
 10 13  1  0  0  0  0
 13 14  1  0  0  0  0
 13 15  1  0  0  0  0
 15 16  1  0  0  0  0
 15 17  1  0  0  0  0
  1 18  1  0  0  0  0
 15 18  1  0  0  0  0
 18 19  1  0  0  0  0
 18 20  1  0  0  0  0
 13 21  1  0  0  0  0
 21 22  1  0  0  0  0
M  END
> <VConfSearch Rank>
336

> <Conf_Id>
98

> <Delta U+W>
0.930

> <U+W>
7.353

> <U>
8.455

> <W>
-1.102

> <W(PB)>
-3.101

> <W(SA)>
2.000

> <Valence>
15.601

> <Coulomb>
-10.573

> <VdW>
3.427

> <VdW6>
-11.360

> <VdW12>
14.787

> <Bond>
0.471

> <Angle>
5.445

> <Pdih>
9.685

> <Idih>
0.000

> <Tether>
0.000

$$$$
VeraChem MOL file


 22 22  0  0  0  0  0  0  0  0999 V2000     
   19.1782   18.5128   23.7551 C   0  0  0  0  0  0  0  0  0  0  0  0
   19.9605   18.7481   24.4882 H   0  0  0  0  0  0  0  0  0  0  0  0
   18.4644   17.8753   24.2945 H   0  0  0  0  0  0  0  0  0  0  0  0
   19.7844   17.6950   22.5864 C   0  0  0  0  0  0  0  0  0  0  0  0
   20.2156   16.7789   23.0126 H   0  0  0  0  0  0  0  0  0  0  0  0
   18.9811   17.3615   21.9155 H   0  0  0  0  0  0  0  0  0  0  0  0
   20.8858   18.4045   21.7508 C   0  0  0  0  0  0  0  0  0  0  0  0
   20.4710   18.7451   20.7933 H   0  0  0  0  0  0  0  0  0  0  0  0
   21.6448   17.6578   21.4804 H   0  0  0  0  0  0  0  0  0  0  0  0
   21.5878   19.5916   22.4620 C   0  0  0  0  0  0  0  0  0  0  0  0
   21.9444   19.2618   23.4457 H   0  0  0  0  0  0  0  0  0  0  0  0
   22.4987   19.8399   21.9009 H   0  0  0  0  0  0  0  0  0  0  0  0
   20.7342   20.8822   22.6339 C   0  0  0  0  0  0  0  0  0  0  0  0
   20.8611   21.2373   23.6668 H   0  0  0  0  0  0  0  0  0  0  0  0
   19.2171   20.7324   22.3575 C   0  0  0  0  0  0  0  0  0  0  0  0
   18.7499   21.7252   22.3914 H   0  0  0  0  0  0  0  0  0  0  0  0
   19.0621   20.3792   21.3310 H   0  0  0  0  0  0  0  0  0  0  0  0
   18.4505   19.8134   23.3411 C   0  0  0  0  0  0  0  0  0  0  0  0
   18.2210   20.3815   24.2529 H   0  0  0  0  0  0  0  0  0  0  0  0
   17.4805   19.5569   22.8938 H   0  0  0  0  0  0  0  0  0  0  0  0
   21.2336   21.8746   21.7444 O   0  0  0  0  0  0  0  0  0  0  0  0
   20.7184   22.6907   21.9135 H   0  0  0  0  0  0  0  0  0  0  0  0
  1  2  1  0  0  0  0
  1  3  1  0  0  0  0
  1  4  1  0  0  0  0
  4  5  1  0  0  0  0
  4  6  1  0  0  0  0
  4  7  1  0  0  0  0
  7  8  1  0  0  0  0
  7  9  1  0  0  0  0
  7 10  1  0  0  0  0
 10 11  1  0  0  0  0
 10 12  1  0  0  0  0
 10 13  1  0  0  0  0
 13 14  1  0  0  0  0
 13 15  1  0  0  0  0
 15 16  1  0  0  0  0
 15 17  1  0  0  0  0
  1 18  1  0  0  0  0
 15 18  1  0  0  0  0
 18 19  1  0  0  0  0
 18 20  1  0  0  0  0
 13 21  1  0  0  0  0
 21 22  1  0  0  0  0
M  END
> <VConfSearch Rank>
337

> <Conf_Id>
141

> <Delta U+W>
0.000

> <U+W>
6.423

> <U>
8.781

> <W>
-2.358

> <W(PB)>
-4.373

> <W(SA)>
2.015

> <Valence>
13.328

> <Coulomb>
-8.387

> <VdW>
3.840

> <VdW6>
-9.744

> <VdW12>
13.584

> <Bond>
0.436

> <Angle>
3.478

> <Pdih>
9.415

> <Idih>
0.000

> <Tether>
0.000

$$$$
VeraChem MOL file


 22 22  0  0  0  0  0  0  0  0999 V2000     
   19.9199   18.4442   21.3570 C   0  0  0  0  0  0  0  0  0  0  0  0
   20.8670   18.0222   21.7196 H   0  0  0  0  0  0  0  0  0  0  0  0
   19.6108   17.8146   20.5115 H   0  0  0  0  0  0  0  0  0  0  0  0
   20.1235   19.8823   20.8220 C   0  0  0  0  0  0  0  0  0  0  0  0
   20.7218   19.8318   19.9020 H   0  0  0  0  0  0  0  0  0  0  0  0
   19.1526   20.3008   20.5239 H   0  0  0  0  0  0  0  0  0  0  0  0
   20.8220   20.8563   21.7986 C   0  0  0  0  0  0  0  0  0  0  0  0
   20.8454   21.8507   21.3321 H   0  0  0  0  0  0  0  0  0  0  0  0
   21.8723   20.5586   21.9220 H   0  0  0  0  0  0  0  0  0  0  0  0
   20.1538   20.9787   23.1899 C   0  0  0  0  0  0  0  0  0  0  0  0
   20.5920   21.8507   23.6930 H   0  0  0  0  0  0  0  0  0  0  0  0
   19.0819   21.1919   23.0873 H   0  0  0  0  0  0  0  0  0  0  0  0
   20.3751   19.7281   24.0700 C   0  0  0  0  0  0  0  0  0  0  0  0
   21.3597   19.3046   23.8249 H   0  0  0  0  0  0  0  0  0  0  0  0
   19.3123   18.6202   23.8901 C   0  0  0  0  0  0  0  0  0  0  0  0
   19.7313   17.6903   24.2957 H   0  0  0  0  0  0  0  0  0  0  0  0
   18.4370   18.8520   24.5116 H   0  0  0  0  0  0  0  0  0  0  0  0
   18.8231   18.3562   22.4440 C   0  0  0  0  0  0  0  0  0  0  0  0
   18.3724   17.3548   22.4157 H   0  0  0  0  0  0  0  0  0  0  0  0
   18.0092   19.0520   22.1987 H   0  0  0  0  0  0  0  0  0  0  0  0
   20.3731   20.1230   25.4365 O   0  0  0  0  0  0  0  0  0  0  0  0
   21.1027   20.7684   25.5448 H   0  0  0  0  0  0  0  0  0  0  0  0
  1  2  1  0  0  0  0
  1  3  1  0  0  0  0
  1  4  1  0  0  0  0
  4  5  1  0  0  0  0
  4  6  1  0  0  0  0
  4  7  1  0  0  0  0
  7  8  1  0  0  0  0
  7  9  1  0  0  0  0
  7 10  1  0  0  0  0
 10 11  1  0  0  0  0
 10 12  1  0  0  0  0
 10 13  1  0  0  0  0
 13 14  1  0  0  0  0
 13 15  1  0  0  0  0
 15 16  1  0  0  0  0
 15 17  1  0  0  0  0
  1 18  1  0  0  0  0
 15 18  1  0  0  0  0
 18 19  1  0  0  0  0
 18 20  1  0  0  0  0
 13 21  1  0  0  0  0
 21 22  1  0  0  0  0
M  END
> <VConfSearch Rank>
338

> <Conf_Id>
144

> <Delta U+W>
-3.291

> <U+W>
3.132

> <U>
5.411

> <W>
-2.279

> <W(PB)>
-4.300

> <W(SA)>
2.021

> <Valence>
11.909

> <Coulomb>
-8.733

> <VdW>
2.236

> <VdW6>
-8.936

> <VdW12>
11.172

> <Bond>
0.223

> <Angle>
2.457

> <Pdih>
9.228

> <Idih>
0.000

> <Tether>
0.000

$$$$
VeraChem MOL file


 22 22  0  0  0  0  0  0  0  0999 V2000     
   21.6116   19.6869   22.2172 C   0  0  0  0  0  0  0  0  0  0  0  0
   22.5602   19.9393   21.7239 H   0  0  0  0  0  0  0  0  0  0  0  0
   21.8750   19.0591   23.0793 H   0  0  0  0  0  0  0  0  0  0  0  0
   20.7421   18.9008   21.2082 C   0  0  0  0  0  0  0  0  0  0  0  0
   20.2271   19.6062   20.5420 H   0  0  0  0  0  0  0  0  0  0  0  0
   21.4004   18.3100   20.5565 H   0  0  0  0  0  0  0  0  0  0  0  0
   19.7098   17.9374   21.8423 C   0  0  0  0  0  0  0  0  0  0  0  0
   20.2079   16.9884   22.0838 H   0  0  0  0  0  0  0  0  0  0  0  0
   18.9565   17.6933   21.0807 H   0  0  0  0  0  0  0  0  0  0  0  0
   18.9916   18.4431   23.1177 C   0  0  0  0  0  0  0  0  0  0  0  0
   18.0864   17.8365   23.2563 H   0  0  0  0  0  0  0  0  0  0  0  0
   19.6233   18.2391   23.9920 H   0  0  0  0  0  0  0  0  0  0  0  0
   18.6111   19.9406   23.1007 C   0  0  0  0  0  0  0  0  0  0  0  0
   18.3459   20.2415   22.0772 H   0  0  0  0  0  0  0  0  0  0  0  0
   19.7462   20.8464   23.6298 C   0  0  0  0  0  0  0  0  0  0  0  0
   19.3349   21.8447   23.8305 H   0  0  0  0  0  0  0  0  0  0  0  0
   20.0996   20.4641   24.5963 H   0  0  0  0  0  0  0  0  0  0  0  0
   20.9541   21.0102   22.6770 C   0  0  0  0  0  0  0  0  0  0  0  0
   20.6467   21.5902   21.7960 H   0  0  0  0  0  0  0  0  0  0  0  0
   21.7128   21.6198   23.1865 H   0  0  0  0  0  0  0  0  0  0  0  0
   17.4794   20.1236   23.9409 O   0  0  0  0  0  0  0  0  0  0  0  0
   17.7534   19.8445   24.8387 H   0  0  0  0  0  0  0  0  0  0  0  0
  1  2  1  0  0  0  0
  1  3  1  0  0  0  0
  1  4  1  0  0  0  0
  4  5  1  0  0  0  0
  4  6  1  0  0  0  0
  4  7  1  0  0  0  0
  7  8  1  0  0  0  0
  7  9  1  0  0  0  0
  7 10  1  0  0  0  0
 10 11  1  0  0  0  0
 10 12  1  0  0  0  0
 10 13  1  0  0  0  0
 13 14  1  0  0  0  0
 13 15  1  0  0  0  0
 15 16  1  0  0  0  0
 15 17  1  0  0  0  0
  1 18  1  0  0  0  0
 15 18  1  0  0  0  0
 18 19  1  0  0  0  0
 18 20  1  0  0  0  0
 13 21  1  0  0  0  0
 21 22  1  0  0  0  0
M  END
> <VConfSearch Rank>
339

> <Conf_Id>
76

> <Delta U+W>
-3.175

> <U+W>
3.248

> <U>
5.336

> <W>
-2.088

> <W(PB)>
-4.098

> <W(SA)>
2.010

> <Valence>
12.390

> <Coulomb>
-9.270

> <VdW>
2.216

> <VdW6>
-8.967

> <VdW12>
11.183

> <Bond>
0.218

> <Angle>
2.426

> <Pdih>
9.745

> <Idih>
0.000

> <Tether>
0.000

$$$$
VeraChem MOL file


 22 22  0  0  0  0  0  0  0  0999 V2000     
   20.4424   19.0115   20.9329 C   0  0  0  0  0  0  0  0  0  0  0  0
   20.7263   19.6494   20.0848 H   0  0  0  0  0  0  0  0  0  0  0  0
   20.5024   17.9790   20.5625 H   0  0  0  0  0  0  0  0  0  0  0  0
   18.9736   19.3262   21.3048 C   0  0  0  0  0  0  0  0  0  0  0  0
   18.7839   20.4000   21.1726 H   0  0  0  0  0  0  0  0  0  0  0  0
   18.3236   18.8215   20.5771 H   0  0  0  0  0  0  0  0  0  0  0  0
   18.5545   18.9016   22.7316 C   0  0  0  0  0  0  0  0  0  0  0  0
   19.0268   17.9508   23.0140 H   0  0  0  0  0  0  0  0  0  0  0  0
   17.4722   18.7149   22.7278 H   0  0  0  0  0  0  0  0  0  0  0  0
   18.8409   19.9955   23.7916 C   0  0  0  0  0  0  0  0  0  0  0  0
   18.4196   20.9491   23.4487 H   0  0  0  0  0  0  0  0  0  0  0  0
   18.2940   19.7449   24.7100 H   0  0  0  0  0  0  0  0  0  0  0  0
   20.3249   20.2127   24.1653 C   0  0  0  0  0  0  0  0  0  0  0  0
   20.3677   21.1264   24.7755 H   0  0  0  0  0  0  0  0  0  0  0  0
   21.2831   20.4205   22.9656 C   0  0  0  0  0  0  0  0  0  0  0  0
   20.9435   21.2716   22.3614 H   0  0  0  0  0  0  0  0  0  0  0  0
   22.2601   20.7156   23.3696 H   0  0  0  0  0  0  0  0  0  0  0  0
   21.4873   19.1767   22.0621 C   0  0  0  0  0  0  0  0  0  0  0  0
   22.4802   19.2372   21.5963 H   0  0  0  0  0  0  0  0  0  0  0  0
   21.5088   18.2656   22.6744 H   0  0  0  0  0  0  0  0  0  0  0  0
   20.7720   19.1232   24.9660 O   0  0  0  0  0  0  0  0  0  0  0  0
   21.7243   19.2740   25.1354 H   0  0  0  0  0  0  0  0  0  0  0  0
  1  2  1  0  0  0  0
  1  3  1  0  0  0  0
  1  4  1  0  0  0  0
  4  5  1  0  0  0  0
  4  6  1  0  0  0  0
  4  7  1  0  0  0  0
  7  8  1  0  0  0  0
  7  9  1  0  0  0  0
  7 10  1  0  0  0  0
 10 11  1  0  0  0  0
 10 12  1  0  0  0  0
 10 13  1  0  0  0  0
 13 14  1  0  0  0  0
 13 15  1  0  0  0  0
 15 16  1  0  0  0  0
 15 17  1  0  0  0  0
  1 18  1  0  0  0  0
 15 18  1  0  0  0  0
 18 19  1  0  0  0  0
 18 20  1  0  0  0  0
 13 21  1  0  0  0  0
 21 22  1  0  0  0  0
M  END
> <VConfSearch Rank>
340

> <Conf_Id>
95

> <Delta U+W>
-2.289

> <U+W>
4.134

> <U>
6.373

> <W>
-2.240

> <W(PB)>
-4.254

> <W(SA)>
2.015

> <Valence>
12.093

> <Coulomb>
-8.058

> <VdW>
2.339

> <VdW6>
-9.683

> <VdW12>
12.022

> <Bond>
0.268

> <Angle>
3.005

> <Pdih>
8.820

> <Idih>
0.000

> <Tether>
0.000

$$$$
VeraChem MOL file


 22 22  0  0  0  0  0  0  0  0999 V2000     
   19.7059   21.3191   23.5319 C   0  0  0  0  0  0  0  0  0  0  0  0
   20.1534   22.2921   23.2875 H   0  0  0  0  0  0  0  0  0  0  0  0
   18.9814   21.5174   24.3336 H   0  0  0  0  0  0  0  0  0  0  0  0
   20.8211   20.3977   24.0812 C   0  0  0  0  0  0  0  0  0  0  0  0
   21.7593   20.6003   23.5470 H   0  0  0  0  0  0  0  0  0  0  0  0
   21.0113   20.6806   25.1255 H   0  0  0  0  0  0  0  0  0  0  0  0
   20.5102   18.8841   24.0196 C   0  0  0  0  0  0  0  0  0  0  0  0
   19.4509   18.6911   24.2374 H   0  0  0  0  0  0  0  0  0  0  0  0
   21.0807   18.3869   24.8158 H   0  0  0  0  0  0  0  0  0  0  0  0
   20.9247   18.2433   22.6710 C   0  0  0  0  0  0  0  0  0  0  0  0
   21.9602   18.5265   22.4423 H   0  0  0  0  0  0  0  0  0  0  0  0
   20.9412   17.1523   22.7911 H   0  0  0  0  0  0  0  0  0  0  0  0
   20.0377   18.5858   21.4520 C   0  0  0  0  0  0  0  0  0  0  0  0
   20.5596   18.2046   20.5624 H   0  0  0  0  0  0  0  0  0  0  0  0
   19.7920   20.0980   21.2214 C   0  0  0  0  0  0  0  0  0  0  0  0
   20.7507   20.6204   21.1094 H   0  0  0  0  0  0  0  0  0  0  0  0
   19.2805   20.1997   20.2556 H   0  0  0  0  0  0  0  0  0  0  0  0
   18.9262   20.7978   22.3012 C   0  0  0  0  0  0  0  0  0  0  0  0
   18.4116   21.6521   21.8413 H   0  0  0  0  0  0  0  0  0  0  0  0
   18.1266   20.1227   22.6336 H   0  0  0  0  0  0  0  0  0  0  0  0
   18.7946   17.8996   21.5650 O   0  0  0  0  0  0  0  0  0  0  0  0
   19.0066   16.9576   21.7258 H   0  0  0  0  0  0  0  0  0  0  0  0
  1  2  1  0  0  0  0
  1  3  1  0  0  0  0
  1  4  1  0  0  0  0
  4  5  1  0  0  0  0
  4  6  1  0  0  0  0
  4  7  1  0  0  0  0
  7  8  1  0  0  0  0
  7  9  1  0  0  0  0
  7 10  1  0  0  0  0
 10 11  1  0  0  0  0
 10 12  1  0  0  0  0
 10 13  1  0  0  0  0
 13 14  1  0  0  0  0
 13 15  1  0  0  0  0
 15 16  1  0  0  0  0
 15 17  1  0  0  0  0
  1 18  1  0  0  0  0
 15 18  1  0  0  0  0
 18 19  1  0  0  0  0
 18 20  1  0  0  0  0
 13 21  1  0  0  0  0
 21 22  1  0  0  0  0
M  END
> <VConfSearch Rank>
341

> <Conf_Id>
41

> <Delta U+W>
-2.114

> <U+W>
4.310

> <U>
6.598

> <W>
-2.289

> <W(PB)>
-4.294

> <W(SA)>
2.005

> <Valence>
12.082

> <Coulomb>
-7.801

> <VdW>
2.317

> <VdW6>
-9.658

> <VdW12>
11.975

> <Bond>
0.267

> <Angle>
3.051

> <Pdih>
8.764

> <Idih>
0.000

> <Tether>
0.000

$$$$
VeraChem MOL file


 22 22  0  0  0  0  0  0  0  0999 V2000     
   19.5182   20.7312   23.7303 C   0  0  0  0  0  0  0  0  0  0  0  0
   19.0234   21.3174   24.5166 H   0  0  0  0  0  0  0  0  0  0  0  0
   20.3414   21.3539   23.3539 H   0  0  0  0  0  0  0  0  0  0  0  0
   18.4819   20.4633   22.6160 C   0  0  0  0  0  0  0  0  0  0  0  0
   17.7013   19.7894   22.9943 H   0  0  0  0  0  0  0  0  0  0  0  0
   17.9741   21.4070   22.3749 H   0  0  0  0  0  0  0  0  0  0  0  0
   19.0735   19.8856   21.3115 C   0  0  0  0  0  0  0  0  0  0  0  0
   19.6937   20.6484   20.8224 H   0  0  0  0  0  0  0  0  0  0  0  0
   18.2428   19.6939   20.6192 H   0  0  0  0  0  0  0  0  0  0  0  0
   19.8825   18.5709   21.4794 C   0  0  0  0  0  0  0  0  0  0  0  0
   19.2912   17.8333   22.0368 H   0  0  0  0  0  0  0  0  0  0  0  0
   20.0275   18.1403   20.4803 H   0  0  0  0  0  0  0  0  0  0  0  0
   21.2859   18.7148   22.1226 C   0  0  0  0  0  0  0  0  0  0  0  0
   21.8387   17.7950   21.8823 H   0  0  0  0  0  0  0  0  0  0  0  0
   21.3123   18.8421   23.6680 C   0  0  0  0  0  0  0  0  0  0  0  0
   21.4833   17.8422   24.0874 H   0  0  0  0  0  0  0  0  0  0  0  0
   22.1898   19.4322   23.9634 H   0  0  0  0  0  0  0  0  0  0  0  0
   20.0613   19.4320   24.3651 C   0  0  0  0  0  0  0  0  0  0  0  0
   19.2652   18.6764   24.4045 H   0  0  0  0  0  0  0  0  0  0  0  0
   20.3253   19.6362   25.4117 H   0  0  0  0  0  0  0  0  0  0  0  0
   21.9919   19.8067   21.5392 O   0  0  0  0  0  0  0  0  0  0  0  0
   22.8787   19.8234   21.9530 H   0  0  0  0  0  0  0  0  0  0  0  0
  1  2  1  0  0  0  0
  1  3  1  0  0  0  0
  1  4  1  0  0  0  0
  4  5  1  0  0  0  0
  4  6  1  0  0  0  0
  4  7  1  0  0  0  0
  7  8  1  0  0  0  0
  7  9  1  0  0  0  0
  7 10  1  0  0  0  0
 10 11  1  0  0  0  0
 10 12  1  0  0  0  0
 10 13  1  0  0  0  0
 13 14  1  0  0  0  0
 13 15  1  0  0  0  0
 15 16  1  0  0  0  0
 15 17  1  0  0  0  0
  1 18  1  0  0  0  0
 15 18  1  0  0  0  0
 18 19  1  0  0  0  0
 18 20  1  0  0  0  0
 13 21  1  0  0  0  0
 21 22  1  0  0  0  0
M  END
> <VConfSearch Rank>
342

> <Conf_Id>
104

> <Delta U+W>
-1.172

> <U+W>
5.252

> <U>
7.482

> <W>
-2.230

> <W(PB)>
-4.220

> <W(SA)>
1.990

> <Valence>
12.309

> <Coulomb>
-7.084

> <VdW>
2.258

> <VdW6>
-9.770

> <VdW12>
12.028

> <Bond>
0.284

> <Angle>
3.491

> <Pdih>
8.535

> <Idih>
0.000

> <Tether>
0.000

$$$$
VeraChem MOL file


 22 22  0  0  0  0  0  0  0  0999 V2000     
   19.7991   17.9692   22.5401 C   0  0  0  0  0  0  0  0  0  0  0  0
   18.7534   18.1005   22.2306 H   0  0  0  0  0  0  0  0  0  0  0  0
   19.9672   16.8844   22.5844 H   0  0  0  0  0  0  0  0  0  0  0  0
   20.0317   18.5419   23.9569 C   0  0  0  0  0  0  0  0  0  0  0  0
   19.6652   17.8137   24.6936 H   0  0  0  0  0  0  0  0  0  0  0  0
   21.1105   18.6183   24.1457 H   0  0  0  0  0  0  0  0  0  0  0  0
   19.3453   19.8993   24.2535 C   0  0  0  0  0  0  0  0  0  0  0  0
   19.9092   20.4080   25.0476 H   0  0  0  0  0  0  0  0  0  0  0  0
   18.3535   19.7008   24.6823 H   0  0  0  0  0  0  0  0  0  0  0  0
   19.1524   20.8748   23.0608 C   0  0  0  0  0  0  0  0  0  0  0  0
   18.2858   20.5517   22.4696 H   0  0  0  0  0  0  0  0  0  0  0  0
   18.8738   21.8557   23.4671 H   0  0  0  0  0  0  0  0  0  0  0  0
   20.3558   21.0724   22.1107 C   0  0  0  0  0  0  0  0  0  0  0  0
   20.2131   22.0346   21.5981 H   0  0  0  0  0  0  0  0  0  0  0  0
   20.4373   19.9888   21.0119 C   0  0  0  0  0  0  0  0  0  0  0  0
   19.4875   19.9739   20.4616 H   0  0  0  0  0  0  0  0  0  0  0  0
   21.1968   20.2981   20.2820 H   0  0  0  0  0  0  0  0  0  0  0  0
   20.7672   18.5505   21.4823 C   0  0  0  0  0  0  0  0  0  0  0  0
   20.7482   17.8956   20.6006 H   0  0  0  0  0  0  0  0  0  0  0  0
   21.7985   18.5090   21.8583 H   0  0  0  0  0  0  0  0  0  0  0  0
   21.5692   21.1166   22.8454 O   0  0  0  0  0  0  0  0  0  0  0  0
   21.5831   20.2696   23.3340 H   0  0  0  0  0  0  0  0  0  0  0  0
  1  2  1  0  0  0  0
  1  3  1  0  0  0  0
  1  4  1  0  0  0  0
  4  5  1  0  0  0  0
  4  6  1  0  0  0  0
  4  7  1  0  0  0  0
  7  8  1  0  0  0  0
  7  9  1  0  0  0  0
  7 10  1  0  0  0  0
 10 11  1  0  0  0  0
 10 12  1  0  0  0  0
 10 13  1  0  0  0  0
 13 14  1  0  0  0  0
 13 15  1  0  0  0  0
 15 16  1  0  0  0  0
 15 17  1  0  0  0  0
  1 18  1  0  0  0  0
 15 18  1  0  0  0  0
 18 19  1  0  0  0  0
 18 20  1  0  0  0  0
 13 21  1  0  0  0  0
 21 22  1  0  0  0  0
M  END
> <VConfSearch Rank>
343

> <Conf_Id>
99

> <Delta U+W>
-3.852

> <U+W>
2.572

> <U>
3.922

> <W>
-1.350

> <W(PB)>
-3.345

> <W(SA)>
1.995

> <Valence>
12.571

> <Coulomb>
-10.581

> <VdW>
1.932

> <VdW6>
-10.483

> <VdW12>
12.415

> <Bond>
0.268

> <Angle>
3.728

> <Pdih>
8.575

> <Idih>
0.000

> <Tether>
0.000

$$$$
VeraChem MOL file


 22 22  0  0  0  0  0  0  0  0999 V2000     
   19.8188   19.4821   24.3208 C   0  0  0  0  0  0  0  0  0  0  0  0
   20.0237   19.0395   25.3053 H   0  0  0  0  0  0  0  0  0  0  0  0
   19.0713   20.2636   24.5118 H   0  0  0  0  0  0  0  0  0  0  0  0
   19.2131   18.3705   23.4144 C   0  0  0  0  0  0  0  0  0  0  0  0
   19.1557   17.4469   24.0067 H   0  0  0  0  0  0  0  0  0  0  0  0
   18.1712   18.6119   23.1647 H   0  0  0  0  0  0  0  0  0  0  0  0
   19.9972   18.0509   22.1161 C   0  0  0  0  0  0  0  0  0  0  0  0
   19.5810   17.1340   21.6768 H   0  0  0  0  0  0  0  0  0  0  0  0
   21.0340   17.7917   22.3639 H   0  0  0  0  0  0  0  0  0  0  0  0
   19.9796   19.1530   21.0207 C   0  0  0  0  0  0  0  0  0  0  0  0
   20.8458   18.9984   20.3646 H   0  0  0  0  0  0  0  0  0  0  0  0
   19.1002   18.9936   20.3825 H   0  0  0  0  0  0  0  0  0  0  0  0
   19.9653   20.6341   21.4727 C   0  0  0  0  0  0  0  0  0  0  0  0
   20.1822   21.2418   20.5825 H   0  0  0  0  0  0  0  0  0  0  0  0
   21.0025   21.0311   22.5519 C   0  0  0  0  0  0  0  0  0  0  0  0
   21.9897   21.0987   22.0768 H   0  0  0  0  0  0  0  0  0  0  0  0
   20.7666   22.0531   22.8773 H   0  0  0  0  0  0  0  0  0  0  0  0
   21.1311   20.1321   23.8129 C   0  0  0  0  0  0  0  0  0  0  0  0
   21.8858   19.3552   23.6384 H   0  0  0  0  0  0  0  0  0  0  0  0
   21.5493   20.7462   24.6221 H   0  0  0  0  0  0  0  0  0  0  0  0
   18.6628   20.9853   21.9122 O   0  0  0  0  0  0  0  0  0  0  0  0
   18.5190   20.4222   22.6991 H   0  0  0  0  0  0  0  0  0  0  0  0
  1  2  1  0  0  0  0
  1  3  1  0  0  0  0
  1  4  1  0  0  0  0
  4  5  1  0  0  0  0
  4  6  1  0  0  0  0
  4  7  1  0  0  0  0
  7  8  1  0  0  0  0
  7  9  1  0  0  0  0
  7 10  1  0  0  0  0
 10 11  1  0  0  0  0
 10 12  1  0  0  0  0
 10 13  1  0  0  0  0
 13 14  1  0  0  0  0
 13 15  1  0  0  0  0
 15 16  1  0  0  0  0
 15 17  1  0  0  0  0
  1 18  1  0  0  0  0
 15 18  1  0  0  0  0
 18 19  1  0  0  0  0
 18 20  1  0  0  0  0
 13 21  1  0  0  0  0
 21 22  1  0  0  0  0
M  END
> <VConfSearch Rank>
344

> <Conf_Id>
98

> <Delta U+W>
0.930

> <U+W>
7.353

> <U>
8.455

> <W>
-1.102

> <W(PB)>
-3.101

> <W(SA)>
2.000

> <Valence>
15.601

> <Coulomb>
-10.573

> <VdW>
3.427

> <VdW6>
-11.360

> <VdW12>
14.787

> <Bond>
0.471

> <Angle>
5.445

> <Pdih>
9.685

> <Idih>
0.000

> <Tether>
0.000

$$$$
VeraChem MOL file


 22 22  0  0  0  0  0  0  0  0999 V2000     
   20.7356   18.2366   21.7872 C   0  0  0  0  0  0  0  0  0  0  0  0
   20.3042   17.5631   22.5389 H   0  0  0  0  0  0  0  0  0  0  0  0
   21.2267   17.5755   21.0603 H   0  0  0  0  0  0  0  0  0  0  0  0
   21.8145   19.1339   22.4454 C   0  0  0  0  0  0  0  0  0  0  0  0
   22.5815   18.4716   22.8697 H   0  0  0  0  0  0  0  0  0  0  0  0
   22.3251   19.7228   21.6714 H   0  0  0  0  0  0  0  0  0  0  0  0
   21.3225   20.0865   23.5702 C   0  0  0  0  0  0  0  0  0  0  0  0
   21.2479   21.1129   23.1882 H   0  0  0  0  0  0  0  0  0  0  0  0
   22.0985   20.1294   24.3464 H   0  0  0  0  0  0  0  0  0  0  0  0
   19.9788   19.6822   24.2326 C   0  0  0  0  0  0  0  0  0  0  0  0
   20.0373   18.6352   24.5553 H   0  0  0  0  0  0  0  0  0  0  0  0
   19.8654   20.2573   25.1615 H   0  0  0  0  0  0  0  0  0  0  0  0
   18.7044   19.8778   23.3600 C   0  0  0  0  0  0  0  0  0  0  0  0
   18.0931   18.9677   23.4443 H   0  0  0  0  0  0  0  0  0  0  0  0
   18.9500   20.1572   21.8560 C   0  0  0  0  0  0  0  0  0  0  0  0
   17.9913   20.3963   21.3777 H   0  0  0  0  0  0  0  0  0  0  0  0
   19.5584   21.0626   21.7434 H   0  0  0  0  0  0  0  0  0  0  0  0
   19.5999   18.9964   21.0623 C   0  0  0  0  0  0  0  0  0  0  0  0
   18.8209   18.2702   20.7928 H   0  0  0  0  0  0  0  0  0  0  0  0
   19.9818   19.3949   20.1126 H   0  0  0  0  0  0  0  0  0  0  0  0
   17.9647   20.9756   23.8823 O   0  0  0  0  0  0  0  0  0  0  0  0
   17.1428   21.0402   23.3527 H   0  0  0  0  0  0  0  0  0  0  0  0
  1  2  1  0  0  0  0
  1  3  1  0  0  0  0
  1  4  1  0  0  0  0
  4  5  1  0  0  0  0
  4  6  1  0  0  0  0
  4  7  1  0  0  0  0
  7  8  1  0  0  0  0
  7  9  1  0  0  0  0
  7 10  1  0  0  0  0
 10 11  1  0  0  0  0
 10 12  1  0  0  0  0
 10 13  1  0  0  0  0
 13 14  1  0  0  0  0
 13 15  1  0  0  0  0
 15 16  1  0  0  0  0
 15 17  1  0  0  0  0
  1 18  1  0  0  0  0
 15 18  1  0  0  0  0
 18 19  1  0  0  0  0
 18 20  1  0  0  0  0
 13 21  1  0  0  0  0
 21 22  1  0  0  0  0
M  END
> <VConfSearch Rank>
345

> <Conf_Id>
141

> <Delta U+W>
0.000

> <U+W>
6.423

> <U>
8.781

> <W>
-2.358

> <W(PB)>
-4.373

> <W(SA)>
2.015

> <Valence>
13.328

> <Coulomb>
-8.387

> <VdW>
3.840

> <VdW6>
-9.744

> <VdW12>
13.584

> <Bond>
0.436

> <Angle>
3.478

> <Pdih>
9.415

> <Idih>
0.000

> <Tether>
0.000

$$$$
VeraChem MOL file


 22 22  0  0  0  0  0  0  0  0999 V2000     
   21.4507   19.0614   21.8793 C   0  0  0  0  0  0  0  0  0  0  0  0
   21.8312   20.0909   21.9221 H   0  0  0  0  0  0  0  0  0  0  0  0
   22.2595   18.4564   21.4471 H   0  0  0  0  0  0  0  0  0  0  0  0
   20.2312   18.9609   20.9314 C   0  0  0  0  0  0  0  0  0  0  0  0
   20.5748   19.1238   19.9007 H   0  0  0  0  0  0  0  0  0  0  0  0
   19.8348   17.9366   20.9554 H   0  0  0  0  0  0  0  0  0  0  0  0
   19.0867   19.9589   21.2214 C   0  0  0  0  0  0  0  0  0  0  0  0
   18.2604   19.7426   20.5305 H   0  0  0  0  0  0  0  0  0  0  0  0
   19.4205   20.9773   20.9796 H   0  0  0  0  0  0  0  0  0  0  0  0
   18.5411   19.9255   22.6700 C   0  0  0  0  0  0  0  0  0  0  0  0
   17.6023   20.4946   22.6844 H   0  0  0  0  0  0  0  0  0  0  0  0
   18.2810   18.8999   22.9623 H   0  0  0  0  0  0  0  0  0  0  0  0
   19.5204   20.5474   23.6908 C   0  0  0  0  0  0  0  0  0  0  0  0
   20.0695   21.3582   23.1909 H   0  0  0  0  0  0  0  0  0  0  0  0
   20.5497   19.5556   24.2793 C   0  0  0  0  0  0  0  0  0  0  0  0
   21.3649   20.1456   24.7177 H   0  0  0  0  0  0  0  0  0  0  0  0
   20.0913   19.0091   25.1143 H   0  0  0  0  0  0  0  0  0  0  0  0
   21.1561   18.5213   23.2983 C   0  0  0  0  0  0  0  0  0  0  0  0
   22.0897   18.1439   23.7373 H   0  0  0  0  0  0  0  0  0  0  0  0
   20.4916   17.6495   23.2265 H   0  0  0  0  0  0  0  0  0  0  0  0
   18.7718   21.0968   24.7682 O   0  0  0  0  0  0  0  0  0  0  0  0
   18.1798   21.7763   24.3830 H   0  0  0  0  0  0  0  0  0  0  0  0
  1  2  1  0  0  0  0
  1  3  1  0  0  0  0
  1  4  1  0  0  0  0
  4  5  1  0  0  0  0
  4  6  1  0  0  0  0
  4  7  1  0  0  0  0
  7  8  1  0  0  0  0
  7  9  1  0  0  0  0
  7 10  1  0  0  0  0
 10 11  1  0  0  0  0
 10 12  1  0  0  0  0
 10 13  1  0  0  0  0
 13 14  1  0  0  0  0
 13 15  1  0  0  0  0
 15 16  1  0  0  0  0
 15 17  1  0  0  0  0
  1 18  1  0  0  0  0
 15 18  1  0  0  0  0
 18 19  1  0  0  0  0
 18 20  1  0  0  0  0
 13 21  1  0  0  0  0
 21 22  1  0  0  0  0
M  END
> <VConfSearch Rank>
346

> <Conf_Id>
144

> <Delta U+W>
-3.291

> <U+W>
3.132

> <U>
5.411

> <W>
-2.279

> <W(PB)>
-4.300

> <W(SA)>
2.021

> <Valence>
11.909

> <Coulomb>
-8.733

> <VdW>
2.236

> <VdW6>
-8.936

> <VdW12>
11.172

> <Bond>
0.223

> <Angle>
2.457

> <Pdih>
9.228

> <Idih>
0.000

> <Tether>
0.000

$$$$
VeraChem MOL file


 22 22  0  0  0  0  0  0  0  0999 V2000     
   20.7108   18.5342   21.4825 C   0  0  0  0  0  0  0  0  0  0  0  0
   20.9993   17.6934   20.8370 H   0  0  0  0  0  0  0  0  0  0  0  0
   21.3798   19.3642   21.2177 H   0  0  0  0  0  0  0  0  0  0  0  0
   20.9226   18.1032   22.9527 C   0  0  0  0  0  0  0  0  0  0  0  0
   20.0540   17.5227   23.2923 H   0  0  0  0  0  0  0  0  0  0  0  0
   21.7743   17.4109   23.0009 H   0  0  0  0  0  0  0  0  0  0  0  0
   21.1931   19.2611   23.9437 C   0  0  0  0  0  0  0  0  0  0  0  0
   22.2611   19.5167   23.9118 H   0  0  0  0  0  0  0  0  0  0  0  0
   21.0052   18.8917   24.9612 H   0  0  0  0  0  0  0  0  0  0  0  0
   20.3797   20.5599   23.7207 C   0  0  0  0  0  0  0  0  0  0  0  0
   20.4161   21.1428   24.6510 H   0  0  0  0  0  0  0  0  0  0  0  0
   20.8834   21.1752   22.9641 H   0  0  0  0  0  0  0  0  0  0  0  0
   18.9073   20.3432   23.3054 C   0  0  0  0  0  0  0  0  0  0  0  0
   18.5153   19.4407   23.7957 H   0  0  0  0  0  0  0  0  0  0  0  0
   18.7358   20.2176   21.7744 C   0  0  0  0  0  0  0  0  0  0  0  0
   17.6701   20.3215   21.5302 H   0  0  0  0  0  0  0  0  0  0  0  0
   19.2436   21.0554   21.2790 H   0  0  0  0  0  0  0  0  0  0  0  0
   19.2381   18.8876   21.1641 C   0  0  0  0  0  0  0  0  0  0  0  0
   18.5865   18.0668   21.4936 H   0  0  0  0  0  0  0  0  0  0  0  0
   19.1195   18.9442   20.0734 H   0  0  0  0  0  0  0  0  0  0  0  0
   18.1510   21.4661   23.7384 O   0  0  0  0  0  0  0  0  0  0  0  0
   18.5295   22.2465   23.2836 H   0  0  0  0  0  0  0  0  0  0  0  0
  1  2  1  0  0  0  0
  1  3  1  0  0  0  0
  1  4  1  0  0  0  0
  4  5  1  0  0  0  0
  4  6  1  0  0  0  0
  4  7  1  0  0  0  0
  7  8  1  0  0  0  0
  7  9  1  0  0  0  0
  7 10  1  0  0  0  0
 10 11  1  0  0  0  0
 10 12  1  0  0  0  0
 10 13  1  0  0  0  0
 13 14  1  0  0  0  0
 13 15  1  0  0  0  0
 15 16  1  0  0  0  0
 15 17  1  0  0  0  0
  1 18  1  0  0  0  0
 15 18  1  0  0  0  0
 18 19  1  0  0  0  0
 18 20  1  0  0  0  0
 13 21  1  0  0  0  0
 21 22  1  0  0  0  0
M  END
> <VConfSearch Rank>
347

> <Conf_Id>
76

> <Delta U+W>
-3.175

> <U+W>
3.248

> <U>
5.336

> <W>
-2.088

> <W(PB)>
-4.098

> <W(SA)>
2.010

> <Valence>
12.390

> <Coulomb>
-9.270

> <VdW>
2.216

> <VdW6>
-8.967

> <VdW12>
11.183

> <Bond>
0.218

> <Angle>
2.426

> <Pdih>
9.745

> <Idih>
0.000

> <Tether>
0.000

$$$$
VeraChem MOL file


 22 22  0  0  0  0  0  0  0  0999 V2000     
   19.0041   18.8881   24.0790 C   0  0  0  0  0  0  0  0  0  0  0  0
   19.1536   19.0313   25.1579 H   0  0  0  0  0  0  0  0  0  0  0  0
   18.0566   18.3413   23.9794 H   0  0  0  0  0  0  0  0  0  0  0  0
   20.1538   18.0008   23.5447 C   0  0  0  0  0  0  0  0  0  0  0  0
   21.0848   18.2504   24.0715 H   0  0  0  0  0  0  0  0  0  0  0  0
   19.9331   16.9595   23.8161 H   0  0  0  0  0  0  0  0  0  0  0  0
   20.3885   18.0829   22.0183 C   0  0  0  0  0  0  0  0  0  0  0  0
   19.4365   18.1753   21.4781 H   0  0  0  0  0  0  0  0  0  0  0  0
   20.8342   17.1342   21.6903 H   0  0  0  0  0  0  0  0  0  0  0  0
   21.3604   19.2230   21.6212 C   0  0  0  0  0  0  0  0  0  0  0  0
   22.2721   19.1475   22.2275 H   0  0  0  0  0  0  0  0  0  0  0  0
   21.6823   19.0634   20.5837 H   0  0  0  0  0  0  0  0  0  0  0  0
   20.8069   20.6620   21.7321 C   0  0  0  0  0  0  0  0  0  0  0  0
   21.6606   21.3414   21.5954 H   0  0  0  0  0  0  0  0  0  0  0  0
   20.1568   21.0151   23.0934 C   0  0  0  0  0  0  0  0  0  0  0  0
   20.8787   20.8516   23.9039 H   0  0  0  0  0  0  0  0  0  0  0  0
   19.9520   22.0934   23.0926 H   0  0  0  0  0  0  0  0  0  0  0  0
   18.8326   20.2700   23.4043 C   0  0  0  0  0  0  0  0  0  0  0  0
   18.2223   20.8962   24.0690 H   0  0  0  0  0  0  0  0  0  0  0  0
   18.2399   20.1564   22.4871 H   0  0  0  0  0  0  0  0  0  0  0  0
   19.8826   20.8927   20.6735 O   0  0  0  0  0  0  0  0  0  0  0  0
   19.5196   21.7913   20.8112 H   0  0  0  0  0  0  0  0  0  0  0  0
  1  2  1  0  0  0  0
  1  3  1  0  0  0  0
  1  4  1  0  0  0  0
  4  5  1  0  0  0  0
  4  6  1  0  0  0  0
  4  7  1  0  0  0  0
  7  8  1  0  0  0  0
  7  9  1  0  0  0  0
  7 10  1  0  0  0  0
 10 11  1  0  0  0  0
 10 12  1  0  0  0  0
 10 13  1  0  0  0  0
 13 14  1  0  0  0  0
 13 15  1  0  0  0  0
 15 16  1  0  0  0  0
 15 17  1  0  0  0  0
  1 18  1  0  0  0  0
 15 18  1  0  0  0  0
 18 19  1  0  0  0  0
 18 20  1  0  0  0  0
 13 21  1  0  0  0  0
 21 22  1  0  0  0  0
M  END
> <VConfSearch Rank>
348

> <Conf_Id>
95

> <Delta U+W>
-2.289

> <U+W>
4.134

> <U>
6.373

> <W>
-2.240

> <W(PB)>
-4.254

> <W(SA)>
2.015

> <Valence>
12.093

> <Coulomb>
-8.058

> <VdW>
2.339

> <VdW6>
-9.683

> <VdW12>
12.022

> <Bond>
0.268

> <Angle>
3.005

> <Pdih>
8.820

> <Idih>
0.000

> <Tether>
0.000

$$$$
VeraChem MOL file


 22 22  0  0  0  0  0  0  0  0999 V2000     
   20.9661   19.4572   24.3728 C   0  0  0  0  0  0  0  0  0  0  0  0
   20.6625   18.8796   25.2565 H   0  0  0  0  0  0  0  0  0  0  0  0
   21.9419   19.8950   24.6238 H   0  0  0  0  0  0  0  0  0  0  0  0
   19.9429   20.5995   24.1663 C   0  0  0  0  0  0  0  0  0  0  0  0
   18.9389   20.2444   24.4352 H   0  0  0  0  0  0  0  0  0  0  0  0
   20.1745   21.3966   24.8858 H   0  0  0  0  0  0  0  0  0  0  0  0
   19.9117   21.2019   22.7423 C   0  0  0  0  0  0  0  0  0  0  0  0
   20.9228   21.2568   22.3163 H   0  0  0  0  0  0  0  0  0  0  0  0
   19.5565   22.2384   22.8191 H   0  0  0  0  0  0  0  0  0  0  0  0
   18.9506   20.4424   21.7932 C   0  0  0  0  0  0  0  0  0  0  0  0
   17.9754   20.3303   22.2844 H   0  0  0  0  0  0  0  0  0  0  0  0
   18.7618   21.0678   20.9110 H   0  0  0  0  0  0  0  0  0  0  0  0
   19.4248   19.0519   21.3122 C   0  0  0  0  0  0  0  0  0  0  0  0
   18.5701   18.5835   20.8031 H   0  0  0  0  0  0  0  0  0  0  0  0
   19.8701   18.0835   22.4365 C   0  0  0  0  0  0  0  0  0  0  0  0
   19.0519   17.9410   23.1540 H   0  0  0  0  0  0  0  0  0  0  0  0
   20.0364   17.1027   21.9727 H   0  0  0  0  0  0  0  0  0  0  0  0
   21.1681   18.4903   23.1817 C   0  0  0  0  0  0  0  0  0  0  0  0
   21.6549   17.5827   23.5629 H   0  0  0  0  0  0  0  0  0  0  0  0
   21.8840   18.9272   22.4730 H   0  0  0  0  0  0  0  0  0  0  0  0
   20.4732   19.2133   20.3616 O   0  0  0  0  0  0  0  0  0  0  0  0
   20.1472   19.8436   19.6873 H   0  0  0  0  0  0  0  0  0  0  0  0
  1  2  1  0  0  0  0
  1  3  1  0  0  0  0
  1  4  1  0  0  0  0
  4  5  1  0  0  0  0
  4  6  1  0  0  0  0
  4  7  1  0  0  0  0
  7  8  1  0  0  0  0
  7  9  1  0  0  0  0
  7 10  1  0  0  0  0
 10 11  1  0  0  0  0
 10 12  1  0  0  0  0
 10 13  1  0  0  0  0
 13 14  1  0  0  0  0
 13 15  1  0  0  0  0
 15 16  1  0  0  0  0
 15 17  1  0  0  0  0
  1 18  1  0  0  0  0
 15 18  1  0  0  0  0
 18 19  1  0  0  0  0
 18 20  1  0  0  0  0
 13 21  1  0  0  0  0
 21 22  1  0  0  0  0
M  END
> <VConfSearch Rank>
349

> <Conf_Id>
41

> <Delta U+W>
-2.114

> <U+W>
4.310

> <U>
6.598

> <W>
-2.289

> <W(PB)>
-4.294

> <W(SA)>
2.005

> <Valence>
12.082

> <Coulomb>
-7.801

> <VdW>
2.317

> <VdW6>
-9.658

> <VdW12>
11.975

> <Bond>
0.267

> <Angle>
3.051

> <Pdih>
8.764

> <Idih>
0.000

> <Tether>
0.000

$$$$
VeraChem MOL file


 22 22  0  0  0  0  0  0  0  0999 V2000     
   20.0768   18.9521   21.1553 C   0  0  0  0  0  0  0  0  0  0  0  0
   19.9518   18.7931   20.0756 H   0  0  0  0  0  0  0  0  0  0  0  0
   20.8641   18.2578   21.4797 H   0  0  0  0  0  0  0  0  0  0  0  0
   18.7344   18.6158   21.8424 C   0  0  0  0  0  0  0  0  0  0  0  0
   17.9776   19.3576   21.5533 H   0  0  0  0  0  0  0  0  0  0  0  0
   18.3745   17.6524   21.4565 H   0  0  0  0  0  0  0  0  0  0  0  0
   18.8042   18.5242   23.3825 C   0  0  0  0  0  0  0  0  0  0  0  0
   19.3964   17.6452   23.6698 H   0  0  0  0  0  0  0  0  0  0  0  0
   17.7898   18.3300   23.7561 H   0  0  0  0  0  0  0  0  0  0  0  0
   19.3530   19.7902   24.0947 C   0  0  0  0  0  0  0  0  0  0  0  0
   18.8124   20.6806   23.7496 H   0  0  0  0  0  0  0  0  0  0  0  0
   19.1197   19.6975   25.1631 H   0  0  0  0  0  0  0  0  0  0  0  0
   20.8812   20.0250   23.9797 C   0  0  0  0  0  0  0  0  0  0  0  0
   21.1508   20.7396   24.7709 H   0  0  0  0  0  0  0  0  0  0  0  0
   21.3715   20.6510   22.6483 C   0  0  0  0  0  0  0  0  0  0  0  0
   21.4552   21.7358   22.7946 H   0  0  0  0  0  0  0  0  0  0  0  0
   22.3948   20.3078   22.4470 H   0  0  0  0  0  0  0  0  0  0  0  0
   20.5124   20.4169   21.3810 C   0  0  0  0  0  0  0  0  0  0  0  0
   19.6283   21.0682   21.4041 H   0  0  0  0  0  0  0  0  0  0  0  0
   21.0984   20.7468   20.5125 H   0  0  0  0  0  0  0  0  0  0  0  0
   21.5916   18.8154   24.2312 O   0  0  0  0  0  0  0  0  0  0  0  0
   22.5448   19.0325   24.1849 H   0  0  0  0  0  0  0  0  0  0  0  0
  1  2  1  0  0  0  0
  1  3  1  0  0  0  0
  1  4  1  0  0  0  0
  4  5  1  0  0  0  0
  4  6  1  0  0  0  0
  4  7  1  0  0  0  0
  7  8  1  0  0  0  0
  7  9  1  0  0  0  0
  7 10  1  0  0  0  0
 10 11  1  0  0  0  0
 10 12  1  0  0  0  0
 10 13  1  0  0  0  0
 13 14  1  0  0  0  0
 13 15  1  0  0  0  0
 15 16  1  0  0  0  0
 15 17  1  0  0  0  0
  1 18  1  0  0  0  0
 15 18  1  0  0  0  0
 18 19  1  0  0  0  0
 18 20  1  0  0  0  0
 13 21  1  0  0  0  0
 21 22  1  0  0  0  0
M  END
> <VConfSearch Rank>
350

> <Conf_Id>
104

> <Delta U+W>
-1.172

> <U+W>
5.252

> <U>
7.482

> <W>
-2.230

> <W(PB)>
-4.220

> <W(SA)>
1.990

> <Valence>
12.309

> <Coulomb>
-7.084

> <VdW>
2.258

> <VdW6>
-9.770

> <VdW12>
12.028

> <Bond>
0.284

> <Angle>
3.491

> <Pdih>
8.535

> <Idih>
0.000

> <Tether>
0.000

$$$$
VeraChem MOL file


 22 22  0  0  0  0  0  0  0  0999 V2000     
   21.0320   20.3388   23.7664 C   0  0  0  0  0  0  0  0  0  0  0  0
   21.8827   19.6735   23.5662 H   0  0  0  0  0  0  0  0  0  0  0  0
   21.3648   21.0255   24.5567 H   0  0  0  0  0  0  0  0  0  0  0  0
   19.8240   19.5422   24.3102 C   0  0  0  0  0  0  0  0  0  0  0  0
   19.9886   19.3418   25.3779 H   0  0  0  0  0  0  0  0  0  0  0  0
   18.9265   20.1734   24.2749 H   0  0  0  0  0  0  0  0  0  0  0  0
   19.5450   18.1864   23.6132 C   0  0  0  0  0  0  0  0  0  0  0  0
   18.4809   17.9432   23.7391 H   0  0  0  0  0  0  0  0  0  0  0  0
   20.0892   17.3996   24.1534 H   0  0  0  0  0  0  0  0  0  0  0  0
   19.9205   18.0680   22.1112 C   0  0  0  0  0  0  0  0  0  0  0  0
   21.0024   17.9045   22.0236 H   0  0  0  0  0  0  0  0  0  0  0  0
   19.4586   17.1532   21.7176 H   0  0  0  0  0  0  0  0  0  0  0  0
   19.5198   19.2431   21.1901 C   0  0  0  0  0  0  0  0  0  0  0  0
   19.4850   18.8554   20.1618 H   0  0  0  0  0  0  0  0  0  0  0  0
   20.5530   20.3923   21.1995 C   0  0  0  0  0  0  0  0  0  0  0  0
   21.5353   19.9842   20.9279 H   0  0  0  0  0  0  0  0  0  0  0  0
   20.2921   21.0936   20.3961 H   0  0  0  0  0  0  0  0  0  0  0  0
   20.6886   21.1895   22.5204 C   0  0  0  0  0  0  0  0  0  0  0  0
   21.4829   21.9357   22.3828 H   0  0  0  0  0  0  0  0  0  0  0  0
   19.7714   21.7654   22.7037 H   0  0  0  0  0  0  0  0  0  0  0  0
   18.2362   19.7364   21.5409 O   0  0  0  0  0  0  0  0  0  0  0  0
   18.3243   19.9819   22.4833 H   0  0  0  0  0  0  0  0  0  0  0  0
  1  2  1  0  0  0  0
  1  3  1  0  0  0  0
  1  4  1  0  0  0  0
  4  5  1  0  0  0  0
  4  6  1  0  0  0  0
  4  7  1  0  0  0  0
  7  8  1  0  0  0  0
  7  9  1  0  0  0  0
  7 10  1  0  0  0  0
 10 11  1  0  0  0  0
 10 12  1  0  0  0  0
 10 13  1  0  0  0  0
 13 14  1  0  0  0  0
 13 15  1  0  0  0  0
 15 16  1  0  0  0  0
 15 17  1  0  0  0  0
  1 18  1  0  0  0  0
 15 18  1  0  0  0  0
 18 19  1  0  0  0  0
 18 20  1  0  0  0  0
 13 21  1  0  0  0  0
 21 22  1  0  0  0  0
M  END
> <VConfSearch Rank>
351

> <Conf_Id>
99

> <Delta U+W>
-3.852

> <U+W>
2.572

> <U>
3.922

> <W>
-1.350

> <W(PB)>
-3.345

> <W(SA)>
1.995

> <Valence>
12.571

> <Coulomb>
-10.581

> <VdW>
1.932

> <VdW6>
-10.483

> <VdW12>
12.415

> <Bond>
0.268

> <Angle>
3.728

> <Pdih>
8.575

> <Idih>
0.000

> <Tether>
0.000

$$$$
VeraChem MOL file


 22 22  0  0  0  0  0  0  0  0999 V2000     
   20.8591   18.4193   23.5648 C   0  0  0  0  0  0  0  0  0  0  0  0
   20.9971   17.8282   24.4807 H   0  0  0  0  0  0  0  0  0  0  0  0
   21.6140   18.0371   22.8648 H   0  0  0  0  0  0  0  0  0  0  0  0
   21.1524   19.9090   23.9092 C   0  0  0  0  0  0  0  0  0  0  0  0
   21.4175   19.9627   24.9742 H   0  0  0  0  0  0  0  0  0  0  0  0
   22.0498   20.2510   23.3765 H   0  0  0  0  0  0  0  0  0  0  0  0
   19.9906   20.9047   23.6611 C   0  0  0  0  0  0  0  0  0  0  0  0
   20.2551   21.8671   24.1201 H   0  0  0  0  0  0  0  0  0  0  0  0
   19.0977   20.5753   24.2068 H   0  0  0  0  0  0  0  0  0  0  0  0
   19.6278   21.1713   22.1738 C   0  0  0  0  0  0  0  0  0  0  0  0
   18.5968   21.5458   22.1341 H   0  0  0  0  0  0  0  0  0  0  0  0
   20.2510   21.9981   21.8077 H   0  0  0  0  0  0  0  0  0  0  0  0
   19.7639   20.0031   21.1664 C   0  0  0  0  0  0  0  0  0  0  0  0
   19.2557   20.3166   20.2432 H   0  0  0  0  0  0  0  0  0  0  0  0
   19.1326   18.6545   21.5916 C   0  0  0  0  0  0  0  0  0  0  0  0
   18.0431   18.7315   21.4829 H   0  0  0  0  0  0  0  0  0  0  0  0
   19.4444   17.8978   20.8594 H   0  0  0  0  0  0  0  0  0  0  0  0
   19.4415   18.1156   23.0161 C   0  0  0  0  0  0  0  0  0  0  0  0
   18.6851   18.4803   23.7221 H   0  0  0  0  0  0  0  0  0  0  0  0
   19.3021   17.0261   23.0006 H   0  0  0  0  0  0  0  0  0  0  0  0
   21.1322   19.8081   20.8456 O   0  0  0  0  0  0  0  0  0  0  0  0
   21.5366   19.5325   21.6926 H   0  0  0  0  0  0  0  0  0  0  0  0
  1  2  1  0  0  0  0
  1  3  1  0  0  0  0
  1  4  1  0  0  0  0
  4  5  1  0  0  0  0
  4  6  1  0  0  0  0
  4  7  1  0  0  0  0
  7  8  1  0  0  0  0
  7  9  1  0  0  0  0
  7 10  1  0  0  0  0
 10 11  1  0  0  0  0
 10 12  1  0  0  0  0
 10 13  1  0  0  0  0
 13 14  1  0  0  0  0
 13 15  1  0  0  0  0
 15 16  1  0  0  0  0
 15 17  1  0  0  0  0
  1 18  1  0  0  0  0
 15 18  1  0  0  0  0
 18 19  1  0  0  0  0
 18 20  1  0  0  0  0
 13 21  1  0  0  0  0
 21 22  1  0  0  0  0
M  END
> <VConfSearch Rank>
352

> <Conf_Id>
98

> <Delta U+W>
0.930

> <U+W>
7.353

> <U>
8.455

> <W>
-1.102

> <W(PB)>
-3.101

> <W(SA)>
2.000

> <Valence>
15.601

> <Coulomb>
-10.573

> <VdW>
3.427

> <VdW6>
-11.360

> <VdW12>
14.787

> <Bond>
0.471

> <Angle>
5.445

> <Pdih>
9.685

> <Idih>
0.000

> <Tether>
0.000

$$$$
VeraChem MOL file


 22 22  0  0  0  0  0  0  0  0999 V2000     
   20.6286   20.6831   23.7767 C   0  0  0  0  0  0  0  0  0  0  0  0
   21.2030   19.8620   24.2246 H   0  0  0  0  0  0  0  0  0  0  0  0
   20.9257   21.5788   24.3389 H   0  0  0  0  0  0  0  0  0  0  0  0
   19.1132   20.4430   23.9962 C   0  0  0  0  0  0  0  0  0  0  0  0
   18.9412   20.3850   25.0797 H   0  0  0  0  0  0  0  0  0  0  0  0
   18.5483   21.3199   23.6519 H   0  0  0  0  0  0  0  0  0  0  0  0
   18.5189   19.1643   23.3432 C   0  0  0  0  0  0  0  0  0  0  0  0
   17.9570   19.4301   22.4385 H   0  0  0  0  0  0  0  0  0  0  0  0
   17.7694   18.7463   24.0289 H   0  0  0  0  0  0  0  0  0  0  0  0
   19.5532   18.0586   23.0036 C   0  0  0  0  0  0  0  0  0  0  0  0
   20.1547   17.8423   23.8952 H   0  0  0  0  0  0  0  0  0  0  0  0
   19.0079   17.1273   22.7991 H   0  0  0  0  0  0  0  0  0  0  0  0
   20.5027   18.3598   21.8071 C   0  0  0  0  0  0  0  0  0  0  0  0
   21.5259   18.0972   22.1121 H   0  0  0  0  0  0  0  0  0  0  0  0
   20.5103   19.8240   21.3008 C   0  0  0  0  0  0  0  0  0  0  0  0
   21.1177   19.8815   20.3883 H   0  0  0  0  0  0  0  0  0  0  0  0
   19.4992   20.1119   20.9889 H   0  0  0  0  0  0  0  0  0  0  0  0
   21.0590   20.8703   22.3028 C   0  0  0  0  0  0  0  0  0  0  0  0
   22.1568   20.8586   22.2634 H   0  0  0  0  0  0  0  0  0  0  0  0
   20.7560   21.8701   21.9631 H   0  0  0  0  0  0  0  0  0  0  0  0
   20.1250   17.5323   20.7127 O   0  0  0  0  0  0  0  0  0  0  0  0
   20.7715   17.6995   19.9956 H   0  0  0  0  0  0  0  0  0  0  0  0
  1  2  1  0  0  0  0
  1  3  1  0  0  0  0
  1  4  1  0  0  0  0
  4  5  1  0  0  0  0
  4  6  1  0  0  0  0
  4  7  1  0  0  0  0
  7  8  1  0  0  0  0
  7  9  1  0  0  0  0
  7 10  1  0  0  0  0
 10 11  1  0  0  0  0
 10 12  1  0  0  0  0
 10 13  1  0  0  0  0
 13 14  1  0  0  0  0
 13 15  1  0  0  0  0
 15 16  1  0  0  0  0
 15 17  1  0  0  0  0
  1 18  1  0  0  0  0
 15 18  1  0  0  0  0
 18 19  1  0  0  0  0
 18 20  1  0  0  0  0
 13 21  1  0  0  0  0
 21 22  1  0  0  0  0
M  END
> <VConfSearch Rank>
353

> <Conf_Id>
141

> <Delta U+W>
0.000

> <U+W>
6.423

> <U>
8.781

> <W>
-2.358

> <W(PB)>
-4.373

> <W(SA)>
2.015

> <Valence>
13.328

> <Coulomb>
-8.387

> <VdW>
3.840

> <VdW6>
-9.744

> <VdW12>
13.584

> <Bond>
0.436

> <Angle>
3.478

> <Pdih>
9.415

> <Idih>
0.000

> <Tether>
0.000

$$$$
VeraChem MOL file


 22 22  0  0  0  0  0  0  0  0999 V2000     
   19.1899   20.4664   23.9605 C   0  0  0  0  0  0  0  0  0  0  0  0
   18.7894   21.1725   23.2205 H   0  0  0  0  0  0  0  0  0  0  0  0
   18.7692   20.7702   24.9288 H   0  0  0  0  0  0  0  0  0  0  0  0
   20.7300   20.5833   24.0603 C   0  0  0  0  0  0  0  0  0  0  0  0
   20.9789   21.5547   24.5089 H   0  0  0  0  0  0  0  0  0  0  0  0
   21.1081   19.8257   24.7604 H   0  0  0  0  0  0  0  0  0  0  0  0
   21.4886   20.4633   22.7185 C   0  0  0  0  0  0  0  0  0  0  0  0
   22.5661   20.4939   22.9304 H   0  0  0  0  0  0  0  0  0  0  0  0
   21.2796   21.3475   22.1008 H   0  0  0  0  0  0  0  0  0  0  0  0
   21.1811   19.1820   21.9055 C   0  0  0  0  0  0  0  0  0  0  0  0
   21.9358   19.1032   21.1120 H   0  0  0  0  0  0  0  0  0  0  0  0
   21.3013   18.2882   22.5313 H   0  0  0  0  0  0  0  0  0  0  0  0
   19.7767   19.2069   21.2615 C   0  0  0  0  0  0  0  0  0  0  0  0
   19.5343   20.2481   21.0046 H   0  0  0  0  0  0  0  0  0  0  0  0
   18.6480   18.6539   22.1612 C   0  0  0  0  0  0  0  0  0  0  0  0
   17.6937   19.0097   21.7517 H   0  0  0  0  0  0  0  0  0  0  0  0
   18.6211   17.5591   22.0789 H   0  0  0  0  0  0  0  0  0  0  0  0
   18.7136   19.0251   23.6639 C   0  0  0  0  0  0  0  0  0  0  0  0
   17.7117   18.8852   24.0921 H   0  0  0  0  0  0  0  0  0  0  0  0
   19.3609   18.3109   24.1908 H   0  0  0  0  0  0  0  0  0  0  0  0
   19.8064   18.4350   20.0672 O   0  0  0  0  0  0  0  0  0  0  0  0
   20.4745   18.8478   19.4808 H   0  0  0  0  0  0  0  0  0  0  0  0
  1  2  1  0  0  0  0
  1  3  1  0  0  0  0
  1  4  1  0  0  0  0
  4  5  1  0  0  0  0
  4  6  1  0  0  0  0
  4  7  1  0  0  0  0
  7  8  1  0  0  0  0
  7  9  1  0  0  0  0
  7 10  1  0  0  0  0
 10 11  1  0  0  0  0
 10 12  1  0  0  0  0
 10 13  1  0  0  0  0
 13 14  1  0  0  0  0
 13 15  1  0  0  0  0
 15 16  1  0  0  0  0
 15 17  1  0  0  0  0
  1 18  1  0  0  0  0
 15 18  1  0  0  0  0
 18 19  1  0  0  0  0
 18 20  1  0  0  0  0
 13 21  1  0  0  0  0
 21 22  1  0  0  0  0
M  END
> <VConfSearch Rank>
354

> <Conf_Id>
144

> <Delta U+W>
-3.291

> <U+W>
3.132

> <U>
5.411

> <W>
-2.279

> <W(PB)>
-4.300

> <W(SA)>
2.021

> <Valence>
11.909

> <Coulomb>
-8.733

> <VdW>
2.236

> <VdW6>
-8.936

> <VdW12>
11.172

> <Bond>
0.223

> <Angle>
2.457

> <Pdih>
9.228

> <Idih>
0.000

> <Tether>
0.000

$$$$
VeraChem MOL file


 22 22  0  0  0  0  0  0  0  0999 V2000     
   18.2085   19.4926   22.6982 C   0  0  0  0  0  0  0  0  0  0  0  0
   17.1464   19.7006   22.8865 H   0  0  0  0  0  0  0  0  0  0  0  0
   18.2356   18.5835   22.0822 H   0  0  0  0  0  0  0  0  0  0  0  0
   18.8984   19.2550   24.0619 C   0  0  0  0  0  0  0  0  0  0  0  0
   19.1514   20.2223   24.5171 H   0  0  0  0  0  0  0  0  0  0  0  0
   18.1784   18.7881   24.7479 H   0  0  0  0  0  0  0  0  0  0  0  0
   20.1595   18.3588   24.0122 C   0  0  0  0  0  0  0  0  0  0  0  0
   19.8501   17.3050   24.0359 H   0  0  0  0  0  0  0  0  0  0  0  0
   20.7321   18.5223   24.9355 H   0  0  0  0  0  0  0  0  0  0  0  0
   21.0966   18.5589   22.7958 C   0  0  0  0  0  0  0  0  0  0  0  0
   22.0742   18.1276   23.0504 H   0  0  0  0  0  0  0  0  0  0  0  0
   20.7214   17.9675   21.9506 H   0  0  0  0  0  0  0  0  0  0  0  0
   21.2812   20.0269   22.3501 C   0  0  0  0  0  0  0  0  0  0  0  0
   21.2561   20.6849   23.2303 H   0  0  0  0  0  0  0  0  0  0  0  0
   20.2063   20.4775   21.3349 C   0  0  0  0  0  0  0  0  0  0  0  0
   20.5320   21.4189   20.8725 H   0  0  0  0  0  0  0  0  0  0  0  0
   20.1425   19.7452   20.5196 H   0  0  0  0  0  0  0  0  0  0  0  0
   18.7948   20.7002   21.9282 C   0  0  0  0  0  0  0  0  0  0  0  0
   18.8113   21.5795   22.5865 H   0  0  0  0  0  0  0  0  0  0  0  0
   18.1132   20.9553   21.1054 H   0  0  0  0  0  0  0  0  0  0  0  0
   22.5511   20.1472   21.7230 O   0  0  0  0  0  0  0  0  0  0  0  0
   22.5350   19.5479   20.9486 H   0  0  0  0  0  0  0  0  0  0  0  0
  1  2  1  0  0  0  0
  1  3  1  0  0  0  0
  1  4  1  0  0  0  0
  4  5  1  0  0  0  0
  4  6  1  0  0  0  0
  4  7  1  0  0  0  0
  7  8  1  0  0  0  0
  7  9  1  0  0  0  0
  7 10  1  0  0  0  0
 10 11  1  0  0  0  0
 10 12  1  0  0  0  0
 10 13  1  0  0  0  0
 13 14  1  0  0  0  0
 13 15  1  0  0  0  0
 15 16  1  0  0  0  0
 15 17  1  0  0  0  0
  1 18  1  0  0  0  0
 15 18  1  0  0  0  0
 18 19  1  0  0  0  0
 18 20  1  0  0  0  0
 13 21  1  0  0  0  0
 21 22  1  0  0  0  0
M  END
> <VConfSearch Rank>
355

> <Conf_Id>
76

> <Delta U+W>
-3.175

> <U+W>
3.248

> <U>
5.336

> <W>
-2.088

> <W(PB)>
-4.098

> <W(SA)>
2.010

> <Valence>
12.390

> <Coulomb>
-9.270

> <VdW>
2.216

> <VdW6>
-8.967

> <VdW12>
11.183

> <Bond>
0.218

> <Angle>
2.426

> <Pdih>
9.745

> <Idih>
0.000

> <Tether>
0.000

$$$$
VeraChem MOL file


 22 22  0  0  0  0  0  0  0  0999 V2000     
   21.2110   20.9278   23.2666 C   0  0  0  0  0  0  0  0  0  0  0  0
   20.9349   21.9607   23.5190 H   0  0  0  0  0  0  0  0  0  0  0  0
   22.2804   20.8392   23.5018 H   0  0  0  0  0  0  0  0  0  0  0  0
   21.0145   20.7326   21.7441 C   0  0  0  0  0  0  0  0  0  0  0  0
   20.1326   21.2973   21.4129 H   0  0  0  0  0  0  0  0  0  0  0  0
   21.8686   21.1938   21.2298 H   0  0  0  0  0  0  0  0  0  0  0  0
   20.8860   19.2616   21.2843 C   0  0  0  0  0  0  0  0  0  0  0  0
   21.5507   18.6080   21.8655 H   0  0  0  0  0  0  0  0  0  0  0  0
   21.2305   19.1984   20.2434 H   0  0  0  0  0  0  0  0  0  0  0  0
   19.4259   18.7440   21.3304 C   0  0  0  0  0  0  0  0  0  0  0  0
   18.7748   19.4533   20.8036 H   0  0  0  0  0  0  0  0  0  0  0  0
   19.3675   17.8091   20.7576 H   0  0  0  0  0  0  0  0  0  0  0  0
   18.8391   18.4790   22.7356 C   0  0  0  0  0  0  0  0  0  0  0  0
   17.7627   18.2991   22.6009 H   0  0  0  0  0  0  0  0  0  0  0  0
   18.9834   19.6485   23.7414 C   0  0  0  0  0  0  0  0  0  0  0  0
   18.5174   20.5530   23.3296 H   0  0  0  0  0  0  0  0  0  0  0  0
   18.3962   19.3929   24.6329 H   0  0  0  0  0  0  0  0  0  0  0  0
   20.4358   19.9572   24.1892 C   0  0  0  0  0  0  0  0  0  0  0  0
   20.4096   20.3972   25.1953 H   0  0  0  0  0  0  0  0  0  0  0  0
   21.0039   19.0237   24.2951 H   0  0  0  0  0  0  0  0  0  0  0  0
   19.4225   17.2962   23.2729 O   0  0  0  0  0  0  0  0  0  0  0  0
   19.0643   17.1951   24.1783 H   0  0  0  0  0  0  0  0  0  0  0  0
  1  2  1  0  0  0  0
  1  3  1  0  0  0  0
  1  4  1  0  0  0  0
  4  5  1  0  0  0  0
  4  6  1  0  0  0  0
  4  7  1  0  0  0  0
  7  8  1  0  0  0  0
  7  9  1  0  0  0  0
  7 10  1  0  0  0  0
 10 11  1  0  0  0  0
 10 12  1  0  0  0  0
 10 13  1  0  0  0  0
 13 14  1  0  0  0  0
 13 15  1  0  0  0  0
 15 16  1  0  0  0  0
 15 17  1  0  0  0  0
  1 18  1  0  0  0  0
 15 18  1  0  0  0  0
 18 19  1  0  0  0  0
 18 20  1  0  0  0  0
 13 21  1  0  0  0  0
 21 22  1  0  0  0  0
M  END
> <VConfSearch Rank>
356

> <Conf_Id>
95

> <Delta U+W>
-2.289

> <U+W>
4.134

> <U>
6.373

> <W>
-2.240

> <W(PB)>
-4.254

> <W(SA)>
2.015

> <Valence>
12.093

> <Coulomb>
-8.058

> <VdW>
2.339

> <VdW6>
-9.683

> <VdW12>
12.022

> <Bond>
0.268

> <Angle>
3.005

> <Pdih>
8.820

> <Idih>
0.000

> <Tether>
0.000

$$$$
VeraChem MOL file


 22 22  0  0  0  0  0  0  0  0999 V2000     
   21.9225   19.9309   22.5167 C   0  0  0  0  0  0  0  0  0  0  0  0
   22.7094   19.7889   23.2700 H   0  0  0  0  0  0  0  0  0  0  0  0
   22.4401   20.2496   21.6016 H   0  0  0  0  0  0  0  0  0  0  0  0
   20.9971   21.0757   22.9935 C   0  0  0  0  0  0  0  0  0  0  0  0
   20.8933   21.0313   24.0861 H   0  0  0  0  0  0  0  0  0  0  0  0
   21.5018   22.0289   22.7853 H   0  0  0  0  0  0  0  0  0  0  0  0
   19.5940   21.0980   22.3435 C   0  0  0  0  0  0  0  0  0  0  0  0
   19.6465   20.8091   21.2849 H   0  0  0  0  0  0  0  0  0  0  0  0
   19.2282   22.1335   22.3592 H   0  0  0  0  0  0  0  0  0  0  0  0
   18.5679   20.2229   23.1068 C   0  0  0  0  0  0  0  0  0  0  0  0
   18.6025   20.4777   24.1740 H   0  0  0  0  0  0  0  0  0  0  0  0
   17.5579   20.4964   22.7751 H   0  0  0  0  0  0  0  0  0  0  0  0
   18.7319   18.6930   22.9580 C   0  0  0  0  0  0  0  0  0  0  0  0
   18.0523   18.2284   23.6869 H   0  0  0  0  0  0  0  0  0  0  0  0
   20.1533   18.1520   23.2534 C   0  0  0  0  0  0  0  0  0  0  0  0
   20.4586   18.4356   24.2687 H   0  0  0  0  0  0  0  0  0  0  0  0
   20.0894   17.0562   23.2546 H   0  0  0  0  0  0  0  0  0  0  0  0
   21.2434   18.5699   22.2324 C   0  0  0  0  0  0  0  0  0  0  0  0
   22.0258   17.7992   22.2169 H   0  0  0  0  0  0  0  0  0  0  0  0
   20.8224   18.5757   21.2183 H   0  0  0  0  0  0  0  0  0  0  0  0
   18.3195   18.2986   21.6529 O   0  0  0  0  0  0  0  0  0  0  0  0
   17.4284   18.6786   21.5125 H   0  0  0  0  0  0  0  0  0  0  0  0
  1  2  1  0  0  0  0
  1  3  1  0  0  0  0
  1  4  1  0  0  0  0
  4  5  1  0  0  0  0
  4  6  1  0  0  0  0
  4  7  1  0  0  0  0
  7  8  1  0  0  0  0
  7  9  1  0  0  0  0
  7 10  1  0  0  0  0
 10 11  1  0  0  0  0
 10 12  1  0  0  0  0
 10 13  1  0  0  0  0
 13 14  1  0  0  0  0
 13 15  1  0  0  0  0
 15 16  1  0  0  0  0
 15 17  1  0  0  0  0
  1 18  1  0  0  0  0
 15 18  1  0  0  0  0
 18 19  1  0  0  0  0
 18 20  1  0  0  0  0
 13 21  1  0  0  0  0
 21 22  1  0  0  0  0
M  END
> <VConfSearch Rank>
357

> <Conf_Id>
41

> <Delta U+W>
-2.114

> <U+W>
4.310

> <U>
6.598

> <W>
-2.289

> <W(PB)>
-4.294

> <W(SA)>
2.005

> <Valence>
12.082

> <Coulomb>
-7.801

> <VdW>
2.317

> <VdW6>
-9.658

> <VdW12>
11.975

> <Bond>
0.267

> <Angle>
3.051

> <Pdih>
8.764

> <Idih>
0.000

> <Tether>
0.000

$$$$
VeraChem MOL file


 22 22  0  0  0  0  0  0  0  0999 V2000     
   20.1857   19.8537   21.0821 C   0  0  0  0  0  0  0  0  0  0  0  0
   20.3113   20.3030   20.0876 H   0  0  0  0  0  0  0  0  0  0  0  0
   20.2723   18.7674   20.9425 H   0  0  0  0  0  0  0  0  0  0  0  0
   18.7776   20.2280   21.5966 C   0  0  0  0  0  0  0  0  0  0  0  0
   18.7317   21.3085   21.7887 H   0  0  0  0  0  0  0  0  0  0  0  0
   18.0490   20.0328   20.7981 H   0  0  0  0  0  0  0  0  0  0  0  0
   18.3282   19.4606   22.8593 C   0  0  0  0  0  0  0  0  0  0  0  0
   18.1697   18.4036   22.6075 H   0  0  0  0  0  0  0  0  0  0  0  0
   17.3421   19.8434   23.1548 H   0  0  0  0  0  0  0  0  0  0  0  0
   19.2831   19.5789   24.0781 C   0  0  0  0  0  0  0  0  0  0  0  0
   19.5040   20.6341   24.2826 H   0  0  0  0  0  0  0  0  0  0  0  0
   18.7423   19.2130   24.9603 H   0  0  0  0  0  0  0  0  0  0  0  0
   20.6045   18.7730   23.9860 C   0  0  0  0  0  0  0  0  0  0  0  0
   21.0001   18.6980   25.0093 H   0  0  0  0  0  0  0  0  0  0  0  0
   21.7306   19.4148   23.1344 C   0  0  0  0  0  0  0  0  0  0  0  0
   22.3930   19.9695   23.8117 H   0  0  0  0  0  0  0  0  0  0  0  0
   22.3553   18.6185   22.7089 H   0  0  0  0  0  0  0  0  0  0  0  0
   21.3144   20.3793   21.9963 C   0  0  0  0  0  0  0  0  0  0  0  0
   21.0285   21.3524   22.4180 H   0  0  0  0  0  0  0  0  0  0  0  0
   22.2027   20.5750   21.3805 H   0  0  0  0  0  0  0  0  0  0  0  0
   20.3496   17.4490   23.5245 O   0  0  0  0  0  0  0  0  0  0  0  0
   21.2082   16.9792   23.5250 H   0  0  0  0  0  0  0  0  0  0  0  0
  1  2  1  0  0  0  0
  1  3  1  0  0  0  0
  1  4  1  0  0  0  0
  4  5  1  0  0  0  0
  4  6  1  0  0  0  0
  4  7  1  0  0  0  0
  7  8  1  0  0  0  0
  7  9  1  0  0  0  0
  7 10  1  0  0  0  0
 10 11  1  0  0  0  0
 10 12  1  0  0  0  0
 10 13  1  0  0  0  0
 13 14  1  0  0  0  0
 13 15  1  0  0  0  0
 15 16  1  0  0  0  0
 15 17  1  0  0  0  0
  1 18  1  0  0  0  0
 15 18  1  0  0  0  0
 18 19  1  0  0  0  0
 18 20  1  0  0  0  0
 13 21  1  0  0  0  0
 21 22  1  0  0  0  0
M  END
> <VConfSearch Rank>
358

> <Conf_Id>
104

> <Delta U+W>
-1.172

> <U+W>
5.252

> <U>
7.482

> <W>
-2.230

> <W(PB)>
-4.220

> <W(SA)>
1.990

> <Valence>
12.309

> <Coulomb>
-7.084

> <VdW>
2.258

> <VdW6>
-9.770

> <VdW12>
12.028

> <Bond>
0.284

> <Angle>
3.491

> <Pdih>
8.535

> <Idih>
0.000

> <Tether>
0.000

$$$$
VeraChem MOL file


 22 22  0  0  0  0  0  0  0  0999 V2000     
   19.5286   18.5161   23.7965 C   0  0  0  0  0  0  0  0  0  0  0  0
   20.5291   18.0946   23.9632 H   0  0  0  0  0  0  0  0  0  0  0  0
   18.8495   17.9490   24.4477 H   0  0  0  0  0  0  0  0  0  0  0  0
   19.0742   18.2982   22.3352 C   0  0  0  0  0  0  0  0  0  0  0  0
   18.7159   17.2648   22.2301 H   0  0  0  0  0  0  0  0  0  0  0  0
   18.1966   18.9251   22.1299 H   0  0  0  0  0  0  0  0  0  0  0  0
   20.1578   18.5343   21.2527 C   0  0  0  0  0  0  0  0  0  0  0  0
   19.6568   18.7961   20.3104 H   0  0  0  0  0  0  0  0  0  0  0  0
   20.6665   17.5805   21.0566 H   0  0  0  0  0  0  0  0  0  0  0  0
   21.2513   19.5932   21.5595 C   0  0  0  0  0  0  0  0  0  0  0  0
   21.9998   19.1519   22.2303 H   0  0  0  0  0  0  0  0  0  0  0  0
   21.7899   19.8041   20.6266 H   0  0  0  0  0  0  0  0  0  0  0  0
   20.7807   20.9389   22.1574 C   0  0  0  0  0  0  0  0  0  0  0  0
   21.5630   21.6820   21.9459 H   0  0  0  0  0  0  0  0  0  0  0  0
   20.6160   20.8885   23.6932 C   0  0  0  0  0  0  0  0  0  0  0  0
   21.5642   20.5595   24.1379 H   0  0  0  0  0  0  0  0  0  0  0  0
   20.4602   21.9134   24.0544 H   0  0  0  0  0  0  0  0  0  0  0  0
   19.4712   19.9982   24.2370 C   0  0  0  0  0  0  0  0  0  0  0  0
   19.5100   20.0336   25.3342 H   0  0  0  0  0  0  0  0  0  0  0  0
   18.5000   20.4313   23.9621 H   0  0  0  0  0  0  0  0  0  0  0  0
   19.5692   21.3585   21.5489 O   0  0  0  0  0  0  0  0  0  0  0  0
   18.9531   20.6157   21.7072 H   0  0  0  0  0  0  0  0  0  0  0  0
  1  2  1  0  0  0  0
  1  3  1  0  0  0  0
  1  4  1  0  0  0  0
  4  5  1  0  0  0  0
  4  6  1  0  0  0  0
  4  7  1  0  0  0  0
  7  8  1  0  0  0  0
  7  9  1  0  0  0  0
  7 10  1  0  0  0  0
 10 11  1  0  0  0  0
 10 12  1  0  0  0  0
 10 13  1  0  0  0  0
 13 14  1  0  0  0  0
 13 15  1  0  0  0  0
 15 16  1  0  0  0  0
 15 17  1  0  0  0  0
  1 18  1  0  0  0  0
 15 18  1  0  0  0  0
 18 19  1  0  0  0  0
 18 20  1  0  0  0  0
 13 21  1  0  0  0  0
 21 22  1  0  0  0  0
M  END
> <VConfSearch Rank>
359

> <Conf_Id>
99

> <Delta U+W>
-3.852

> <U+W>
2.572

> <U>
3.922

> <W>
-1.350

> <W(PB)>
-3.345

> <W(SA)>
1.995

> <Valence>
12.571

> <Coulomb>
-10.581

> <VdW>
1.932

> <VdW6>
-10.483

> <VdW12>
12.415

> <Bond>
0.268

> <Angle>
3.728

> <Pdih>
8.575

> <Idih>
0.000

> <Tether>
0.000

$$$$
VeraChem MOL file


 22 22  0  0  0  0  0  0  0  0999 V2000     
   18.7524   19.9175   21.7151 C   0  0  0  0  0  0  0  0  0  0  0  0
   17.6814   20.1208   21.5773 H   0  0  0  0  0  0  0  0  0  0  0  0
   19.1814   19.9636   20.7052 H   0  0  0  0  0  0  0  0  0  0  0  0
   18.8948   18.4790   22.2933 C   0  0  0  0  0  0  0  0  0  0  0  0
   17.8854   18.0596   22.4057 H   0  0  0  0  0  0  0  0  0  0  0  0
   19.3932   17.8259   21.5646 H   0  0  0  0  0  0  0  0  0  0  0  0
   19.6084   18.3661   23.6647 C   0  0  0  0  0  0  0  0  0  0  0  0
   19.4702   17.3444   24.0440 H   0  0  0  0  0  0  0  0  0  0  0  0
   19.1016   19.0038   24.3996 H   0  0  0  0  0  0  0  0  0  0  0  0
   21.1320   18.6718   23.6671 C   0  0  0  0  0  0  0  0  0  0  0  0
   21.4256   18.9436   24.6892 H   0  0  0  0  0  0  0  0  0  0  0  0
   21.6727   17.7415   23.4477 H   0  0  0  0  0  0  0  0  0  0  0  0
   21.6620   19.7586   22.6996 C   0  0  0  0  0  0  0  0  0  0  0  0
   22.6933   19.9841   23.0066 H   0  0  0  0  0  0  0  0  0  0  0  0
   20.8917   21.1020   22.6898 C   0  0  0  0  0  0  0  0  0  0  0  0
   21.1571   21.6611   23.5963 H   0  0  0  0  0  0  0  0  0  0  0  0
   21.2810   21.7005   21.8554 H   0  0  0  0  0  0  0  0  0  0  0  0
   19.3420   21.0592   22.5820 C   0  0  0  0  0  0  0  0  0  0  0  0
   18.9017   21.0269   23.5863 H   0  0  0  0  0  0  0  0  0  0  0  0
   19.0077   22.0189   22.1649 H   0  0  0  0  0  0  0  0  0  0  0  0
   21.7223   19.2348   21.3823 O   0  0  0  0  0  0  0  0  0  0  0  0
   20.7879   19.0521   21.1575 H   0  0  0  0  0  0  0  0  0  0  0  0
  1  2  1  0  0  0  0
  1  3  1  0  0  0  0
  1  4  1  0  0  0  0
  4  5  1  0  0  0  0
  4  6  1  0  0  0  0
  4  7  1  0  0  0  0
  7  8  1  0  0  0  0
  7  9  1  0  0  0  0
  7 10  1  0  0  0  0
 10 11  1  0  0  0  0
 10 12  1  0  0  0  0
 10 13  1  0  0  0  0
 13 14  1  0  0  0  0
 13 15  1  0  0  0  0
 15 16  1  0  0  0  0
 15 17  1  0  0  0  0
  1 18  1  0  0  0  0
 15 18  1  0  0  0  0
 18 19  1  0  0  0  0
 18 20  1  0  0  0  0
 13 21  1  0  0  0  0
 21 22  1  0  0  0  0
M  END
> <VConfSearch Rank>
360

> <Conf_Id>
98

> <Delta U+W>
0.930

> <U+W>
7.353

> <U>
8.455

> <W>
-1.102

> <W(PB)>
-3.101

> <W(SA)>
2.000

> <Valence>
15.601

> <Coulomb>
-10.573

> <VdW>
3.427

> <VdW6>
-11.360

> <VdW12>
14.787

> <Bond>
0.471

> <Angle>
5.445

> <Pdih>
9.685

> <Idih>
0.000

> <Tether>
0.000

$$$$
VeraChem MOL file


 22 22  0  0  0  0  0  0  0  0999 V2000     
   18.7841   20.0781   23.7233 C   0  0  0  0  0  0  0  0  0  0  0  0
   19.5833   20.3345   24.4307 H   0  0  0  0  0  0  0  0  0  0  0  0
   17.8562   20.4095   24.2091 H   0  0  0  0  0  0  0  0  0  0  0  0
   18.7219   18.5406   23.5378 C   0  0  0  0  0  0  0  0  0  0  0  0
   18.5343   18.0958   24.5246 H   0  0  0  0  0  0  0  0  0  0  0  0
   17.8498   18.2794   22.9232 H   0  0  0  0  0  0  0  0  0  0  0  0
   19.9887   17.8697   22.9380 C   0  0  0  0  0  0  0  0  0  0  0  0
   19.8187   17.6208   21.8825 H   0  0  0  0  0  0  0  0  0  0  0  0
   20.1324   16.9017   23.4371 H   0  0  0  0  0  0  0  0  0  0  0  0
   21.2953   18.6961   23.0707 C   0  0  0  0  0  0  0  0  0  0  0  0
   21.4266   18.9962   24.1177 H   0  0  0  0  0  0  0  0  0  0  0  0
   22.1454   18.0336   22.8589 H   0  0  0  0  0  0  0  0  0  0  0  0
   21.3988   19.9553   22.1610 C   0  0  0  0  0  0  0  0  0  0  0  0
   21.7611   20.7902   22.7781 H   0  0  0  0  0  0  0  0  0  0  0  0
   20.0861   20.4003   21.4689 C   0  0  0  0  0  0  0  0  0  0  0  0
   20.3123   21.2138   20.7673 H   0  0  0  0  0  0  0  0  0  0  0  0
   19.7028   19.5840   20.8449 H   0  0  0  0  0  0  0  0  0  0  0  0
   18.9671   20.8918   22.4206 C   0  0  0  0  0  0  0  0  0  0  0  0
   19.1677   21.9363   22.6957 H   0  0  0  0  0  0  0  0  0  0  0  0
   18.0186   20.9030   21.8665 H   0  0  0  0  0  0  0  0  0  0  0  0
   22.3532   19.6949   21.1380 O   0  0  0  0  0  0  0  0  0  0  0  0
   22.4410   20.5200   20.6167 H   0  0  0  0  0  0  0  0  0  0  0  0
  1  2  1  0  0  0  0
  1  3  1  0  0  0  0
  1  4  1  0  0  0  0
  4  5  1  0  0  0  0
  4  6  1  0  0  0  0
  4  7  1  0  0  0  0
  7  8  1  0  0  0  0
  7  9  1  0  0  0  0
  7 10  1  0  0  0  0
 10 11  1  0  0  0  0
 10 12  1  0  0  0  0
 10 13  1  0  0  0  0
 13 14  1  0  0  0  0
 13 15  1  0  0  0  0
 15 16  1  0  0  0  0
 15 17  1  0  0  0  0
  1 18  1  0  0  0  0
 15 18  1  0  0  0  0
 18 19  1  0  0  0  0
 18 20  1  0  0  0  0
 13 21  1  0  0  0  0
 21 22  1  0  0  0  0
M  END
> <VConfSearch Rank>
361

> <Conf_Id>
141

> <Delta U+W>
0.000

> <U+W>
6.423

> <U>
8.781

> <W>
-2.358

> <W(PB)>
-4.373

> <W(SA)>
2.015

> <Valence>
13.328

> <Coulomb>
-8.387

> <VdW>
3.840

> <VdW6>
-9.744

> <VdW12>
13.584

> <Bond>
0.436

> <Angle>
3.478

> <Pdih>
9.415

> <Idih>
0.000

> <Tether>
0.000

$$$$
VeraChem MOL file


 22 22  0  0  0  0  0  0  0  0999 V2000     
   19.8150   19.6165   24.3994 C   0  0  0  0  0  0  0  0  0  0  0  0
   18.7242   19.6218   24.2696 H   0  0  0  0  0  0  0  0  0  0  0  0
   19.9918   19.5641   25.4824 H   0  0  0  0  0  0  0  0  0  0  0  0
   20.4401   20.9356   23.8848 C   0  0  0  0  0  0  0  0  0  0  0  0
   20.1317   21.7524   24.5515 H   0  0  0  0  0  0  0  0  0  0  0  0
   21.5339   20.8777   23.9700 H   0  0  0  0  0  0  0  0  0  0  0  0
   20.0600   21.3248   22.4376 C   0  0  0  0  0  0  0  0  0  0  0  0
   20.6158   22.2339   22.1703 H   0  0  0  0  0  0  0  0  0  0  0  0
   18.9975   21.6017   22.4014 H   0  0  0  0  0  0  0  0  0  0  0  0
   20.3465   20.2391   21.3716 C   0  0  0  0  0  0  0  0  0  0  0  0
   20.2559   20.7111   20.3844 H   0  0  0  0  0  0  0  0  0  0  0  0
   21.3831   19.8859   21.4474 H   0  0  0  0  0  0  0  0  0  0  0  0
   19.3625   19.0504   21.4514 C   0  0  0  0  0  0  0  0  0  0  0  0
   18.3873   19.4327   21.7856 H   0  0  0  0  0  0  0  0  0  0  0  0
   19.7964   17.9213   22.4138 C   0  0  0  0  0  0  0  0  0  0  0  0
   18.9088   17.3141   22.6337 H   0  0  0  0  0  0  0  0  0  0  0  0
   20.4977   17.2527   21.8968 H   0  0  0  0  0  0  0  0  0  0  0  0
   20.4428   18.3601   23.7516 C   0  0  0  0  0  0  0  0  0  0  0  0
   20.3682   17.5205   24.4561 H   0  0  0  0  0  0  0  0  0  0  0  0
   21.5187   18.5246   23.6033 H   0  0  0  0  0  0  0  0  0  0  0  0
   19.2145   18.4898   20.1525 O   0  0  0  0  0  0  0  0  0  0  0  0
   18.8668   19.2018   19.5757 H   0  0  0  0  0  0  0  0  0  0  0  0
  1  2  1  0  0  0  0
  1  3  1  0  0  0  0
  1  4  1  0  0  0  0
  4  5  1  0  0  0  0
  4  6  1  0  0  0  0
  4  7  1  0  0  0  0
  7  8  1  0  0  0  0
  7  9  1  0  0  0  0
  7 10  1  0  0  0  0
 10 11  1  0  0  0  0
 10 12  1  0  0  0  0
 10 13  1  0  0  0  0
 13 14  1  0  0  0  0
 13 15  1  0  0  0  0
 15 16  1  0  0  0  0
 15 17  1  0  0  0  0
  1 18  1  0  0  0  0
 15 18  1  0  0  0  0
 18 19  1  0  0  0  0
 18 20  1  0  0  0  0
 13 21  1  0  0  0  0
 21 22  1  0  0  0  0
M  END
> <VConfSearch Rank>
362

> <Conf_Id>
144

> <Delta U+W>
-3.291

> <U+W>
3.132

> <U>
5.411

> <W>
-2.279

> <W(PB)>
-4.300

> <W(SA)>
2.021

> <Valence>
11.909

> <Coulomb>
-8.733

> <VdW>
2.236

> <VdW6>
-8.936

> <VdW12>
11.172

> <Bond>
0.223

> <Angle>
2.457

> <Pdih>
9.228

> <Idih>
0.000

> <Tether>
0.000

$$$$
VeraChem MOL file


 22 22  0  0  0  0  0  0  0  0999 V2000     
   18.9182   19.0284   23.9511 C   0  0  0  0  0  0  0  0  0  0  0  0
   18.0665   18.6953   24.5599 H   0  0  0  0  0  0  0  0  0  0  0  0
   19.7812   19.0644   24.6298 H   0  0  0  0  0  0  0  0  0  0  0  0
   18.5911   20.4362   23.4005 C   0  0  0  0  0  0  0  0  0  0  0  0
   17.9652   20.3412   22.5027 H   0  0  0  0  0  0  0  0  0  0  0  0
   17.9714   20.9696   24.1343 H   0  0  0  0  0  0  0  0  0  0  0  0
   19.8220   21.3197   23.0843 C   0  0  0  0  0  0  0  0  0  0  0  0
   20.1580   21.8087   24.0089 H   0  0  0  0  0  0  0  0  0  0  0  0
   19.4987   22.1315   22.4183 H   0  0  0  0  0  0  0  0  0  0  0  0
   21.0382   20.6012   22.4496 C   0  0  0  0  0  0  0  0  0  0  0  0
   21.6751   21.3659   21.9849 H   0  0  0  0  0  0  0  0  0  0  0  0
   21.6461   20.1507   23.2448 H   0  0  0  0  0  0  0  0  0  0  0  0
   20.6834   19.5206   21.4036 C   0  0  0  0  0  0  0  0  0  0  0  0
   19.7830   19.8245   20.8510 H   0  0  0  0  0  0  0  0  0  0  0  0
   20.4563   18.1309   22.0410 C   0  0  0  0  0  0  0  0  0  0  0  0
   20.4623   17.3739   21.2454 H   0  0  0  0  0  0  0  0  0  0  0  0
   21.3010   17.8869   22.6982 H   0  0  0  0  0  0  0  0  0  0  0  0
   19.1365   17.9798   22.8341 C   0  0  0  0  0  0  0  0  0  0  0  0
   18.2878   18.0073   22.1370 H   0  0  0  0  0  0  0  0  0  0  0  0
   19.1203   16.9785   23.2857 H   0  0  0  0  0  0  0  0  0  0  0  0
   21.7670   19.4098   20.4904 O   0  0  0  0  0  0  0  0  0  0  0  0
   22.5469   19.1405   21.0180 H   0  0  0  0  0  0  0  0  0  0  0  0
  1  2  1  0  0  0  0
  1  3  1  0  0  0  0
  1  4  1  0  0  0  0
  4  5  1  0  0  0  0
  4  6  1  0  0  0  0
  4  7  1  0  0  0  0
  7  8  1  0  0  0  0
  7  9  1  0  0  0  0
  7 10  1  0  0  0  0
 10 11  1  0  0  0  0
 10 12  1  0  0  0  0
 10 13  1  0  0  0  0
 13 14  1  0  0  0  0
 13 15  1  0  0  0  0
 15 16  1  0  0  0  0
 15 17  1  0  0  0  0
  1 18  1  0  0  0  0
 15 18  1  0  0  0  0
 18 19  1  0  0  0  0
 18 20  1  0  0  0  0
 13 21  1  0  0  0  0
 21 22  1  0  0  0  0
M  END
> <VConfSearch Rank>
363

> <Conf_Id>
76

> <Delta U+W>
-3.175

> <U+W>
3.248

> <U>
5.336

> <W>
-2.088

> <W(PB)>
-4.098

> <W(SA)>
2.010

> <Valence>
12.390

> <Coulomb>
-9.270

> <VdW>
2.216

> <VdW6>
-8.967

> <VdW12>
11.183

> <Bond>
0.218

> <Angle>
2.426

> <Pdih>
9.745

> <Idih>
0.000

> <Tether>
0.000

$$$$
VeraChem MOL file


 22 22  0  0  0  0  0  0  0  0999 V2000     
   19.7963   17.9755   21.7183 C   0  0  0  0  0  0  0  0  0  0  0  0
   19.1466   17.8358   20.8436 H   0  0  0  0  0  0  0  0  0  0  0  0
   20.3170   17.0184   21.8587 H   0  0  0  0  0  0  0  0  0  0  0  0
   18.8987   18.2433   22.9501 C   0  0  0  0  0  0  0  0  0  0  0  0
   18.0319   18.8465   22.6479 H   0  0  0  0  0  0  0  0  0  0  0  0
   18.4852   17.2819   23.2841 H   0  0  0  0  0  0  0  0  0  0  0  0
   19.6098   18.9254   24.1420 C   0  0  0  0  0  0  0  0  0  0  0  0
   20.6382   18.5549   24.2511 H   0  0  0  0  0  0  0  0  0  0  0  0
   19.0835   18.6390   25.0624 H   0  0  0  0  0  0  0  0  0  0  0  0
   19.5883   20.4723   24.0480 C   0  0  0  0  0  0  0  0  0  0  0  0
   18.5593   20.8085   23.8675 H   0  0  0  0  0  0  0  0  0  0  0  0
   19.8664   20.8865   25.0261 H   0  0  0  0  0  0  0  0  0  0  0  0
   20.5126   21.1048   22.9828 C   0  0  0  0  0  0  0  0  0  0  0  0
   20.2450   22.1697   22.9229 H   0  0  0  0  0  0  0  0  0  0  0  0
   20.3713   20.5185   21.5556 C   0  0  0  0  0  0  0  0  0  0  0  0
   19.3308   20.6084   21.2178 H   0  0  0  0  0  0  0  0  0  0  0  0
   20.9581   21.1518   20.8780 H   0  0  0  0  0  0  0  0  0  0  0  0
   20.8567   19.0545   21.3936 C   0  0  0  0  0  0  0  0  0  0  0  0
   21.1844   18.9035   20.3562 H   0  0  0  0  0  0  0  0  0  0  0  0
   21.7502   18.8836   22.0083 H   0  0  0  0  0  0  0  0  0  0  0  0
   21.8650   21.0112   23.4189 O   0  0  0  0  0  0  0  0  0  0  0  0
   22.4168   21.3739   22.6963 H   0  0  0  0  0  0  0  0  0  0  0  0
  1  2  1  0  0  0  0
  1  3  1  0  0  0  0
  1  4  1  0  0  0  0
  4  5  1  0  0  0  0
  4  6  1  0  0  0  0
  4  7  1  0  0  0  0
  7  8  1  0  0  0  0
  7  9  1  0  0  0  0
  7 10  1  0  0  0  0
 10 11  1  0  0  0  0
 10 12  1  0  0  0  0
 10 13  1  0  0  0  0
 13 14  1  0  0  0  0
 13 15  1  0  0  0  0
 15 16  1  0  0  0  0
 15 17  1  0  0  0  0
  1 18  1  0  0  0  0
 15 18  1  0  0  0  0
 18 19  1  0  0  0  0
 18 20  1  0  0  0  0
 13 21  1  0  0  0  0
 21 22  1  0  0  0  0
M  END
> <VConfSearch Rank>
364

> <Conf_Id>
95

> <Delta U+W>
-2.289

> <U+W>
4.134

> <U>
6.373

> <W>
-2.240

> <W(PB)>
-4.254

> <W(SA)>
2.015

> <Valence>
12.093

> <Coulomb>
-8.058

> <VdW>
2.339

> <VdW6>
-9.683

> <VdW12>
12.022

> <Bond>
0.268

> <Angle>
3.005

> <Pdih>
8.820

> <Idih>
0.000

> <Tether>
0.000

$$$$
VeraChem MOL file


 22 22  0  0  0  0  0  0  0  0999 V2000     
   19.2515   19.9274   20.9938 C   0  0  0  0  0  0  0  0  0  0  0  0
   19.7453   19.9353   20.0126 H   0  0  0  0  0  0  0  0  0  0  0  0
   18.1839   20.0892   20.7914 H   0  0  0  0  0  0  0  0  0  0  0  0
   19.7917   21.1210   21.8172 C   0  0  0  0  0  0  0  0  0  0  0  0
   20.8568   21.2682   21.5925 H   0  0  0  0  0  0  0  0  0  0  0  0
   19.2889   22.0318   21.4644 H   0  0  0  0  0  0  0  0  0  0  0  0
   19.5999   21.0021   23.3471 C   0  0  0  0  0  0  0  0  0  0  0  0
   18.6365   20.5319   23.5872 H   0  0  0  0  0  0  0  0  0  0  0  0
   19.5562   22.0172   23.7644 H   0  0  0  0  0  0  0  0  0  0  0  0
   20.7686   20.2566   24.0396 C   0  0  0  0  0  0  0  0  0  0  0  0
   21.7194   20.6963   23.7116 H   0  0  0  0  0  0  0  0  0  0  0  0
   20.7165   20.4484   25.1192 H   0  0  0  0  0  0  0  0  0  0  0  0
   20.8286   18.7278   23.8189 C   0  0  0  0  0  0  0  0  0  0  0  0
   21.7937   18.3865   24.2202 H   0  0  0  0  0  0  0  0  0  0  0  0
   20.7661   18.2739   22.3388 C   0  0  0  0  0  0  0  0  0  0  0  0
   21.5819   18.7379   21.7700 H   0  0  0  0  0  0  0  0  0  0  0  0
   20.9649   17.1946   22.3220 H   0  0  0  0  0  0  0  0  0  0  0  0
   19.4105   18.5252   21.6286 C   0  0  0  0  0  0  0  0  0  0  0  0
   19.2857   17.7786   20.8328 H   0  0  0  0  0  0  0  0  0  0  0  0
   18.5835   18.3441   22.3278 H   0  0  0  0  0  0  0  0  0  0  0  0
   19.7907   18.1016   24.5670 O   0  0  0  0  0  0  0  0  0  0  0  0
   19.8653   18.4342   25.4846 H   0  0  0  0  0  0  0  0  0  0  0  0
  1  2  1  0  0  0  0
  1  3  1  0  0  0  0
  1  4  1  0  0  0  0
  4  5  1  0  0  0  0
  4  6  1  0  0  0  0
  4  7  1  0  0  0  0
  7  8  1  0  0  0  0
  7  9  1  0  0  0  0
  7 10  1  0  0  0  0
 10 11  1  0  0  0  0
 10 12  1  0  0  0  0
 10 13  1  0  0  0  0
 13 14  1  0  0  0  0
 13 15  1  0  0  0  0
 15 16  1  0  0  0  0
 15 17  1  0  0  0  0
  1 18  1  0  0  0  0
 15 18  1  0  0  0  0
 18 19  1  0  0  0  0
 18 20  1  0  0  0  0
 13 21  1  0  0  0  0
 21 22  1  0  0  0  0
M  END
> <VConfSearch Rank>
365

> <Conf_Id>
41

> <Delta U+W>
-2.114

> <U+W>
4.310

> <U>
6.598

> <W>
-2.289

> <W(PB)>
-4.294

> <W(SA)>
2.005

> <Valence>
12.082

> <Coulomb>
-7.801

> <VdW>
2.317

> <VdW6>
-9.658

> <VdW12>
11.975

> <Bond>
0.267

> <Angle>
3.051

> <Pdih>
8.764

> <Idih>
0.000

> <Tether>
0.000

$$$$
VeraChem MOL file


 22 22  0  0  0  0  0  0  0  0999 V2000     
   19.0921   20.2118   23.8707 C   0  0  0  0  0  0  0  0  0  0  0  0
   18.3308   20.7761   24.4260 H   0  0  0  0  0  0  0  0  0  0  0  0
   19.4075   19.3904   24.5288 H   0  0  0  0  0  0  0  0  0  0  0  0
   20.2731   21.1657   23.5830 C   0  0  0  0  0  0  0  0  0  0  0  0
   19.9538   21.9428   22.8754 H   0  0  0  0  0  0  0  0  0  0  0  0
   20.5328   21.6923   24.5114 H   0  0  0  0  0  0  0  0  0  0  0  0
   21.5453   20.4728   23.0479 C   0  0  0  0  0  0  0  0  0  0  0  0
   21.9841   19.8520   23.8404 H   0  0  0  0  0  0  0  0  0  0  0  0
   22.2912   21.2509   22.8372 H   0  0  0  0  0  0  0  0  0  0  0  0
   21.3446   19.6274   21.7610 C   0  0  0  0  0  0  0  0  0  0  0  0
   20.8356   20.2245   20.9937 H   0  0  0  0  0  0  0  0  0  0  0  0
   22.3384   19.4044   21.3519 H   0  0  0  0  0  0  0  0  0  0  0  0
   20.6125   18.2732   21.9455 C   0  0  0  0  0  0  0  0  0  0  0  0
   20.8299   17.6726   21.0504 H   0  0  0  0  0  0  0  0  0  0  0  0
   19.0669   18.3481   22.0493 C   0  0  0  0  0  0  0  0  0  0  0  0
   18.6512   18.1665   21.0497 H   0  0  0  0  0  0  0  0  0  0  0  0
   18.7089   17.5133   22.6661 H   0  0  0  0  0  0  0  0  0  0  0  0
   18.4420   19.6613   22.5822 C   0  0  0  0  0  0  0  0  0  0  0  0
   18.4631   20.4297   21.7976 H   0  0  0  0  0  0  0  0  0  0  0  0
   17.3782   19.4710   22.7792 H   0  0  0  0  0  0  0  0  0  0  0  0
   21.1354   17.5734   23.0715 O   0  0  0  0  0  0  0  0  0  0  0  0
   20.6664   16.7154   23.1138 H   0  0  0  0  0  0  0  0  0  0  0  0
  1  2  1  0  0  0  0
  1  3  1  0  0  0  0
  1  4  1  0  0  0  0
  4  5  1  0  0  0  0
  4  6  1  0  0  0  0
  4  7  1  0  0  0  0
  7  8  1  0  0  0  0
  7  9  1  0  0  0  0
  7 10  1  0  0  0  0
 10 11  1  0  0  0  0
 10 12  1  0  0  0  0
 10 13  1  0  0  0  0
 13 14  1  0  0  0  0
 13 15  1  0  0  0  0
 15 16  1  0  0  0  0
 15 17  1  0  0  0  0
  1 18  1  0  0  0  0
 15 18  1  0  0  0  0
 18 19  1  0  0  0  0
 18 20  1  0  0  0  0
 13 21  1  0  0  0  0
 21 22  1  0  0  0  0
M  END
> <VConfSearch Rank>
366

> <Conf_Id>
104

> <Delta U+W>
-1.172

> <U+W>
5.252

> <U>
7.482

> <W>
-2.230

> <W(PB)>
-4.220

> <W(SA)>
1.990

> <Valence>
12.309

> <Coulomb>
-7.084

> <VdW>
2.258

> <VdW6>
-9.770

> <VdW12>
12.028

> <Bond>
0.284

> <Angle>
3.491

> <Pdih>
8.535

> <Idih>
0.000

> <Tether>
0.000

$$$$
VeraChem MOL file


 22 22  0  0  0  0  0  0  0  0999 V2000     
   18.8257   18.5076   22.5889 C   0  0  0  0  0  0  0  0  0  0  0  0
   18.0560   19.2881   22.6590 H   0  0  0  0  0  0  0  0  0  0  0  0
   18.2842   17.5529   22.5401 H   0  0  0  0  0  0  0  0  0  0  0  0
   19.7079   18.4864   23.8580 C   0  0  0  0  0  0  0  0  0  0  0  0
   19.1653   17.9564   24.6530 H   0  0  0  0  0  0  0  0  0  0  0  0
   20.6016   17.8772   23.6695 H   0  0  0  0  0  0  0  0  0  0  0  0
   20.1205   19.8735   24.4123 C   0  0  0  0  0  0  0  0  0  0  0  0
   21.0532   19.7573   24.9814 H   0  0  0  0  0  0  0  0  0  0  0  0
   19.3686   20.1914   25.1476 H   0  0  0  0  0  0  0  0  0  0  0  0
   20.2895   21.0277   23.3874 C   0  0  0  0  0  0  0  0  0  0  0  0
   19.2989   21.4162   23.1178 H   0  0  0  0  0  0  0  0  0  0  0  0
   20.7964   21.8592   23.8940 H   0  0  0  0  0  0  0  0  0  0  0  0
   21.0678   20.7095   22.0901 C   0  0  0  0  0  0  0  0  0  0  0  0
   21.4350   21.6640   21.6866 H   0  0  0  0  0  0  0  0  0  0  0  0
   20.1785   20.0750   20.9970 C   0  0  0  0  0  0  0  0  0  0  0  0
   19.3288   20.7427   20.8037 H   0  0  0  0  0  0  0  0  0  0  0  0
   20.7524   20.0489   20.0615 H   0  0  0  0  0  0  0  0  0  0  0  0
   19.6423   18.6503   21.2825 C   0  0  0  0  0  0  0  0  0  0  0  0
   19.0001   18.3577   20.4406 H   0  0  0  0  0  0  0  0  0  0  0  0
   20.4738   17.9326   21.2825 H   0  0  0  0  0  0  0  0  0  0  0  0
   22.1769   19.8686   22.3675 O   0  0  0  0  0  0  0  0  0  0  0  0
   21.7802   19.0842   22.7960 H   0  0  0  0  0  0  0  0  0  0  0  0
  1  2  1  0  0  0  0
  1  3  1  0  0  0  0
  1  4  1  0  0  0  0
  4  5  1  0  0  0  0
  4  6  1  0  0  0  0
  4  7  1  0  0  0  0
  7  8  1  0  0  0  0
  7  9  1  0  0  0  0
  7 10  1  0  0  0  0
 10 11  1  0  0  0  0
 10 12  1  0  0  0  0
 10 13  1  0  0  0  0
 13 14  1  0  0  0  0
 13 15  1  0  0  0  0
 15 16  1  0  0  0  0
 15 17  1  0  0  0  0
  1 18  1  0  0  0  0
 15 18  1  0  0  0  0
 18 19  1  0  0  0  0
 18 20  1  0  0  0  0
 13 21  1  0  0  0  0
 21 22  1  0  0  0  0
M  END
> <VConfSearch Rank>
367

> <Conf_Id>
99

> <Delta U+W>
-3.852

> <U+W>
2.572

> <U>
3.922

> <W>
-1.350

> <W(PB)>
-3.345

> <W(SA)>
1.995

> <Valence>
12.571

> <Coulomb>
-10.581

> <VdW>
1.932

> <VdW6>
-10.483

> <VdW12>
12.415

> <Bond>
0.268

> <Angle>
3.728

> <Pdih>
8.575

> <Idih>
0.000

> <Tether>
0.000

$$$$
VeraChem MOL file


 22 22  0  0  0  0  0  0  0  0999 V2000     
   19.6917   19.7330   24.2935 C   0  0  0  0  0  0  0  0  0  0  0  0
   19.9504   19.6679   25.3594 H   0  0  0  0  0  0  0  0  0  0  0  0
   18.6509   20.0828   24.2757 H   0  0  0  0  0  0  0  0  0  0  0  0
   19.7868   18.3007   23.6908 C   0  0  0  0  0  0  0  0  0  0  0  0
   20.0864   17.6156   24.4959 H   0  0  0  0  0  0  0  0  0  0  0  0
   18.7921   17.9542   23.3798 H   0  0  0  0  0  0  0  0  0  0  0  0
   20.7880   18.1213   22.5211 C   0  0  0  0  0  0  0  0  0  0  0  0
   20.9005   17.0467   22.3232 H   0  0  0  0  0  0  0  0  0  0  0  0
   21.7866   18.4498   22.8348 H   0  0  0  0  0  0  0  0  0  0  0  0
   20.4042   18.8133   21.1837 C   0  0  0  0  0  0  0  0  0  0  0  0
   21.3198   18.9530   20.5948 H   0  0  0  0  0  0  0  0  0  0  0  0
   19.7863   18.1189   20.5988 H   0  0  0  0  0  0  0  0  0  0  0  0
   19.6521   20.1655   21.2486 C   0  0  0  0  0  0  0  0  0  0  0  0
   19.6760   20.5931   20.2360 H   0  0  0  0  0  0  0  0  0  0  0  0
   20.2432   21.2332   22.2019 C   0  0  0  0  0  0  0  0  0  0  0  0
   21.1397   21.6591   21.7332 H   0  0  0  0  0  0  0  0  0  0  0  0
   19.5239   22.0611   22.2578 H   0  0  0  0  0  0  0  0  0  0  0  0
   20.6098   20.8031   23.6494 C   0  0  0  0  0  0  0  0  0  0  0  0
   21.6528   20.4643   23.6822 H   0  0  0  0  0  0  0  0  0  0  0  0
   20.5914   21.7012   24.2816 H   0  0  0  0  0  0  0  0  0  0  0  0
   18.2902   19.9376   21.5749 O   0  0  0  0  0  0  0  0  0  0  0  0
   18.3231   19.5603   22.4769 H   0  0  0  0  0  0  0  0  0  0  0  0
  1  2  1  0  0  0  0
  1  3  1  0  0  0  0
  1  4  1  0  0  0  0
  4  5  1  0  0  0  0
  4  6  1  0  0  0  0
  4  7  1  0  0  0  0
  7  8  1  0  0  0  0
  7  9  1  0  0  0  0
  7 10  1  0  0  0  0
 10 11  1  0  0  0  0
 10 12  1  0  0  0  0
 10 13  1  0  0  0  0
 13 14  1  0  0  0  0
 13 15  1  0  0  0  0
 15 16  1  0  0  0  0
 15 17  1  0  0  0  0
  1 18  1  0  0  0  0
 15 18  1  0  0  0  0
 18 19  1  0  0  0  0
 18 20  1  0  0  0  0
 13 21  1  0  0  0  0
 21 22  1  0  0  0  0
M  END
> <VConfSearch Rank>
368

> <Conf_Id>
98

> <Delta U+W>
0.930

> <U+W>
7.353

> <U>
8.455

> <W>
-1.102

> <W(PB)>
-3.101

> <W(SA)>
2.000

> <Valence>
15.601

> <Coulomb>
-10.573

> <VdW>
3.427

> <VdW6>
-11.360

> <VdW12>
14.787

> <Bond>
0.471

> <Angle>
5.445

> <Pdih>
9.685

> <Idih>
0.000

> <Tether>
0.000

$$$$
VeraChem MOL file


 22 22  0  0  0  0  0  0  0  0999 V2000     
   19.8531   19.0108   24.2842 C   0  0  0  0  0  0  0  0  0  0  0  0
   20.6291   18.2653   24.0676 H   0  0  0  0  0  0  0  0  0  0  0  0
   19.6255   18.8835   25.3513 H   0  0  0  0  0  0  0  0  0  0  0  0
   18.5764   18.6909   23.4658 C   0  0  0  0  0  0  0  0  0  0  0  0
   18.2460   17.6822   23.7493 H   0  0  0  0  0  0  0  0  0  0  0  0
   17.7654   19.3661   23.7708 H   0  0  0  0  0  0  0  0  0  0  0  0
   18.7231   18.7348   21.9195 C   0  0  0  0  0  0  0  0  0  0  0  0
   18.2823   19.6598   21.5257 H   0  0  0  0  0  0  0  0  0  0  0  0
   18.1118   17.9272   21.4944 H   0  0  0  0  0  0  0  0  0  0  0  0
   20.1753   18.5888   21.3928 C   0  0  0  0  0  0  0  0  0  0  0  0
   20.6323   17.6971   21.8396 H   0  0  0  0  0  0  0  0  0  0  0  0
   20.1319   18.3737   20.3166 H   0  0  0  0  0  0  0  0  0  0  0  0
   21.1092   19.8127   21.6249 C   0  0  0  0  0  0  0  0  0  0  0  0
   22.0687   19.4385   22.0101 H   0  0  0  0  0  0  0  0  0  0  0  0
   20.5821   20.8901   22.6054 C   0  0  0  0  0  0  0  0  0  0  0  0
   21.2653   21.7493   22.5903 H   0  0  0  0  0  0  0  0  0  0  0  0
   19.6238   21.2815   22.2434 H   0  0  0  0  0  0  0  0  0  0  0  0
   20.4295   20.4312   24.0771 C   0  0  0  0  0  0  0  0  0  0  0  0
   21.4117   20.4760   24.5671 H   0  0  0  0  0  0  0  0  0  0  0  0
   19.7963   21.1575   24.6045 H   0  0  0  0  0  0  0  0  0  0  0  0
   21.3362   20.4501   20.3729 O   0  0  0  0  0  0  0  0  0  0  0  0
   21.9702   21.1789   20.5377 H   0  0  0  0  0  0  0  0  0  0  0  0
  1  2  1  0  0  0  0
  1  3  1  0  0  0  0
  1  4  1  0  0  0  0
  4  5  1  0  0  0  0
  4  6  1  0  0  0  0
  4  7  1  0  0  0  0
  7  8  1  0  0  0  0
  7  9  1  0  0  0  0
  7 10  1  0  0  0  0
 10 11  1  0  0  0  0
 10 12  1  0  0  0  0
 10 13  1  0  0  0  0
 13 14  1  0  0  0  0
 13 15  1  0  0  0  0
 15 16  1  0  0  0  0
 15 17  1  0  0  0  0
  1 18  1  0  0  0  0
 15 18  1  0  0  0  0
 18 19  1  0  0  0  0
 18 20  1  0  0  0  0
 13 21  1  0  0  0  0
 21 22  1  0  0  0  0
M  END
> <VConfSearch Rank>
369

> <Conf_Id>
141

> <Delta U+W>
0.000

> <U+W>
6.423

> <U>
8.781

> <W>
-2.358

> <W(PB)>
-4.373

> <W(SA)>
2.015

> <Valence>
13.328

> <Coulomb>
-8.387

> <VdW>
3.840

> <VdW6>
-9.744

> <VdW12>
13.584

> <Bond>
0.436

> <Angle>
3.478

> <Pdih>
9.415

> <Idih>
0.000

> <Tether>
0.000

$$$$
VeraChem MOL file


 22 22  0  0  0  0  0  0  0  0999 V2000     
   20.8386   19.6880   24.1829 C   0  0  0  0  0  0  0  0  0  0  0  0
   19.9220   19.3525   24.6867 H   0  0  0  0  0  0  0  0  0  0  0  0
   21.6040   19.7687   24.9669 H   0  0  0  0  0  0  0  0  0  0  0  0
   20.6480   21.0947   23.5661 C   0  0  0  0  0  0  0  0  0  0  0  0
   20.5519   21.8243   24.3818 H   0  0  0  0  0  0  0  0  0  0  0  0
   21.5569   21.3782   23.0179 H   0  0  0  0  0  0  0  0  0  0  0  0
   19.4220   21.2465   22.6365 C   0  0  0  0  0  0  0  0  0  0  0  0
   19.4366   22.2601   22.2133 H   0  0  0  0  0  0  0  0  0  0  0  0
   18.5017   21.1842   23.2333 H   0  0  0  0  0  0  0  0  0  0  0  0
   19.3526   20.2265   21.4738 C   0  0  0  0  0  0  0  0  0  0  0  0
   18.5868   20.5775   20.7696 H   0  0  0  0  0  0  0  0  0  0  0  0
   20.2974   20.2113   20.9150 H   0  0  0  0  0  0  0  0  0  0  0  0
   18.9822   18.8038   21.9496 C   0  0  0  0  0  0  0  0  0  0  0  0
   18.3088   18.8944   22.8140 H   0  0  0  0  0  0  0  0  0  0  0  0
   20.1888   17.9311   22.3642 C   0  0  0  0  0  0  0  0  0  0  0  0
   19.8041   17.1001   22.9695 H   0  0  0  0  0  0  0  0  0  0  0  0
   20.6300   17.4723   21.4693 H   0  0  0  0  0  0  0  0  0  0  0  0
   21.3189   18.6392   23.1526 C   0  0  0  0  0  0  0  0  0  0  0  0
   21.9033   17.8687   23.6738 H   0  0  0  0  0  0  0  0  0  0  0  0
   22.0174   19.1119   22.4488 H   0  0  0  0  0  0  0  0  0  0  0  0
   18.2939   18.1342   20.9003 O   0  0  0  0  0  0  0  0  0  0  0  0
   17.4929   18.6642   20.7049 H   0  0  0  0  0  0  0  0  0  0  0  0
  1  2  1  0  0  0  0
  1  3  1  0  0  0  0
  1  4  1  0  0  0  0
  4  5  1  0  0  0  0
  4  6  1  0  0  0  0
  4  7  1  0  0  0  0
  7  8  1  0  0  0  0
  7  9  1  0  0  0  0
  7 10  1  0  0  0  0
 10 11  1  0  0  0  0
 10 12  1  0  0  0  0
 10 13  1  0  0  0  0
 13 14  1  0  0  0  0
 13 15  1  0  0  0  0
 15 16  1  0  0  0  0
 15 17  1  0  0  0  0
  1 18  1  0  0  0  0
 15 18  1  0  0  0  0
 18 19  1  0  0  0  0
 18 20  1  0  0  0  0
 13 21  1  0  0  0  0
 21 22  1  0  0  0  0
M  END
> <VConfSearch Rank>
370

> <Conf_Id>
144

> <Delta U+W>
-3.291

> <U+W>
3.132

> <U>
5.411

> <W>
-2.279

> <W(PB)>
-4.300

> <W(SA)>
2.021

> <Valence>
11.909

> <Coulomb>
-8.733

> <VdW>
2.236

> <VdW6>
-8.936

> <VdW12>
11.172

> <Bond>
0.223

> <Angle>
2.457

> <Pdih>
9.228

> <Idih>
0.000

> <Tether>
0.000

$$$$
VeraChem MOL file


 22 22  0  0  0  0  0  0  0  0999 V2000     
   20.5859   19.1516   21.0962 C   0  0  0  0  0  0  0  0  0  0  0  0
   20.9803   18.6226   20.2179 H   0  0  0  0  0  0  0  0  0  0  0  0
   20.5688   20.2165   20.8273 H   0  0  0  0  0  0  0  0  0  0  0  0
   21.5486   18.8975   22.2798 C   0  0  0  0  0  0  0  0  0  0  0  0
   21.3155   17.9271   22.7388 H   0  0  0  0  0  0  0  0  0  0  0  0
   22.5715   18.7993   21.8910 H   0  0  0  0  0  0  0  0  0  0  0  0
   21.5560   19.9984   23.3679 C   0  0  0  0  0  0  0  0  0  0  0  0
   22.2288   20.8077   23.0529 H   0  0  0  0  0  0  0  0  0  0  0  0
   22.0030   19.5766   24.2785 H   0  0  0  0  0  0  0  0  0  0  0  0
   20.1838   20.6226   23.7225 C   0  0  0  0  0  0  0  0  0  0  0  0
   20.2818   21.1166   24.6986 H   0  0  0  0  0  0  0  0  0  0  0  0
   19.9556   21.4222   23.0059 H   0  0  0  0  0  0  0  0  0  0  0  0
   19.0055   19.6240   23.7659 C   0  0  0  0  0  0  0  0  0  0  0  0
   19.3604   18.6516   24.1361 H   0  0  0  0  0  0  0  0  0  0  0  0
   18.3337   19.4398   22.3862 C   0  0  0  0  0  0  0  0  0  0  0  0
   17.3701   18.9327   22.5291 H   0  0  0  0  0  0  0  0  0  0  0  0
   18.0983   20.4234   21.9592 H   0  0  0  0  0  0  0  0  0  0  0  0
   19.1548   18.6245   21.3593 C   0  0  0  0  0  0  0  0  0  0  0  0
   19.2061   17.5763   21.6842 H   0  0  0  0  0  0  0  0  0  0  0  0
   18.6044   18.6164   20.4086 H   0  0  0  0  0  0  0  0  0  0  0  0
   18.0260   20.1275   24.6644 O   0  0  0  0  0  0  0  0  0  0  0  0
   17.7372   20.9908   24.3033 H   0  0  0  0  0  0  0  0  0  0  0  0
  1  2  1  0  0  0  0
  1  3  1  0  0  0  0
  1  4  1  0  0  0  0
  4  5  1  0  0  0  0
  4  6  1  0  0  0  0
  4  7  1  0  0  0  0
  7  8  1  0  0  0  0
  7  9  1  0  0  0  0
  7 10  1  0  0  0  0
 10 11  1  0  0  0  0
 10 12  1  0  0  0  0
 10 13  1  0  0  0  0
 13 14  1  0  0  0  0
 13 15  1  0  0  0  0
 15 16  1  0  0  0  0
 15 17  1  0  0  0  0
  1 18  1  0  0  0  0
 15 18  1  0  0  0  0
 18 19  1  0  0  0  0
 18 20  1  0  0  0  0
 13 21  1  0  0  0  0
 21 22  1  0  0  0  0
M  END
> <VConfSearch Rank>
371

> <Conf_Id>
76

> <Delta U+W>
-3.175

> <U+W>
3.248

> <U>
5.336

> <W>
-2.088

> <W(PB)>
-4.098

> <W(SA)>
2.010

> <Valence>
12.390

> <Coulomb>
-9.270

> <VdW>
2.216

> <VdW6>
-8.967

> <VdW12>
11.183

> <Bond>
0.218

> <Angle>
2.426

> <Pdih>
9.745

> <Idih>
0.000

> <Tether>
0.000

$$$$
VeraChem MOL file


 22 22  0  0  0  0  0  0  0  0999 V2000     
   19.8148   19.6877   20.8341 C   0  0  0  0  0  0  0  0  0  0  0  0
   19.2048   20.4269   20.2974 H   0  0  0  0  0  0  0  0  0  0  0  0
   20.3117   19.0907   20.0572 H   0  0  0  0  0  0  0  0  0  0  0  0
   18.8650   18.7702   21.6407 C   0  0  0  0  0  0  0  0  0  0  0  0
   18.0240   19.3620   22.0269 H   0  0  0  0  0  0  0  0  0  0  0  0
   18.4195   18.0467   20.9444 H   0  0  0  0  0  0  0  0  0  0  0  0
   19.5308   18.0014   22.8057 C   0  0  0  0  0  0  0  0  0  0  0  0
   20.5464   17.6807   22.5361 H   0  0  0  0  0  0  0  0  0  0  0  0
   18.9568   17.0813   22.9793 H   0  0  0  0  0  0  0  0  0  0  0  0
   19.5407   18.8082   24.1290 C   0  0  0  0  0  0  0  0  0  0  0  0
   18.5273   19.1758   24.3349 H   0  0  0  0  0  0  0  0  0  0  0  0
   19.7795   18.1245   24.9542 H   0  0  0  0  0  0  0  0  0  0  0  0
   20.5250   19.9980   24.1963 C   0  0  0  0  0  0  0  0  0  0  0  0
   20.2791   20.5617   25.1078 H   0  0  0  0  0  0  0  0  0  0  0  0
   20.4410   20.9909   23.0098 C   0  0  0  0  0  0  0  0  0  0  0  0
   19.4193   21.3829   22.9244 H   0  0  0  0  0  0  0  0  0  0  0  0
   21.0701   21.8558   23.2568 H   0  0  0  0  0  0  0  0  0  0  0  0
   20.9080   20.4257   21.6432 C   0  0  0  0  0  0  0  0  0  0  0  0
   21.2816   21.2545   21.0269 H   0  0  0  0  0  0  0  0  0  0  0  0
   21.7684   19.7586   21.7855 H   0  0  0  0  0  0  0  0  0  0  0  0
   21.8535   19.5019   24.3265 O   0  0  0  0  0  0  0  0  0  0  0  0
   22.4450   20.2818   24.3129 H   0  0  0  0  0  0  0  0  0  0  0  0
  1  2  1  0  0  0  0
  1  3  1  0  0  0  0
  1  4  1  0  0  0  0
  4  5  1  0  0  0  0
  4  6  1  0  0  0  0
  4  7  1  0  0  0  0
  7  8  1  0  0  0  0
  7  9  1  0  0  0  0
  7 10  1  0  0  0  0
 10 11  1  0  0  0  0
 10 12  1  0  0  0  0
 10 13  1  0  0  0  0
 13 14  1  0  0  0  0
 13 15  1  0  0  0  0
 15 16  1  0  0  0  0
 15 17  1  0  0  0  0
  1 18  1  0  0  0  0
 15 18  1  0  0  0  0
 18 19  1  0  0  0  0
 18 20  1  0  0  0  0
 13 21  1  0  0  0  0
 21 22  1  0  0  0  0
M  END
> <VConfSearch Rank>
372

> <Conf_Id>
95

> <Delta U+W>
-2.289

> <U+W>
4.134

> <U>
6.373

> <W>
-2.240

> <W(PB)>
-4.254

> <W(SA)>
2.015

> <Valence>
12.093

> <Coulomb>
-8.058

> <VdW>
2.339

> <VdW6>
-9.683

> <VdW12>
12.022

> <Bond>
0.268

> <Angle>
3.005

> <Pdih>
8.820

> <Idih>
0.000

> <Tether>
0.000

$$$$
VeraChem MOL file


 22 22  0  0  0  0  0  0  0  0999 V2000     
   21.6032   19.9301   23.7717 C   0  0  0  0  0  0  0  0  0  0  0  0
   21.9875   19.3145   24.5964 H   0  0  0  0  0  0  0  0  0  0  0  0
   22.3253   20.7489   23.6495 H   0  0  0  0  0  0  0  0  0  0  0  0
   20.2414   20.5236   24.2046 C   0  0  0  0  0  0  0  0  0  0  0  0
   19.6994   19.7887   24.8151 H   0  0  0  0  0  0  0  0  0  0  0  0
   20.4385   21.3724   24.8736 H   0  0  0  0  0  0  0  0  0  0  0  0
   19.3350   20.9983   23.0450 C   0  0  0  0  0  0  0  0  0  0  0  0
   19.9298   21.4580   22.2439 H   0  0  0  0  0  0  0  0  0  0  0  0
   18.6775   21.7898   23.4292 H   0  0  0  0  0  0  0  0  0  0  0  0
   18.4355   19.8662   22.4878 C   0  0  0  0  0  0  0  0  0  0  0  0
   17.9215   19.3724   23.3226 H   0  0  0  0  0  0  0  0  0  0  0  0
   17.6391   20.3169   21.8815 H   0  0  0  0  0  0  0  0  0  0  0  0
   19.1447   18.7881   21.6366 C   0  0  0  0  0  0  0  0  0  0  0  0
   18.4148   17.9822   21.4725 H   0  0  0  0  0  0  0  0  0  0  0  0
   20.3909   18.1449   22.2950 C   0  0  0  0  0  0  0  0  0  0  0  0
   20.1169   17.6991   23.2598 H   0  0  0  0  0  0  0  0  0  0  0  0
   20.7002   17.3083   21.6552 H   0  0  0  0  0  0  0  0  0  0  0  0
   21.6066   19.0918   22.4711 C   0  0  0  0  0  0  0  0  0  0  0  0
   22.5259   18.4911   22.4593 H   0  0  0  0  0  0  0  0  0  0  0  0
   21.6868   19.7612   21.6044 H   0  0  0  0  0  0  0  0  0  0  0  0
   19.4900   19.3388   20.3692 O   0  0  0  0  0  0  0  0  0  0  0  0
   18.6759   19.7444   20.0074 H   0  0  0  0  0  0  0  0  0  0  0  0
  1  2  1  0  0  0  0
  1  3  1  0  0  0  0
  1  4  1  0  0  0  0
  4  5  1  0  0  0  0
  4  6  1  0  0  0  0
  4  7  1  0  0  0  0
  7  8  1  0  0  0  0
  7  9  1  0  0  0  0
  7 10  1  0  0  0  0
 10 11  1  0  0  0  0
 10 12  1  0  0  0  0
 10 13  1  0  0  0  0
 13 14  1  0  0  0  0
 13 15  1  0  0  0  0
 15 16  1  0  0  0  0
 15 17  1  0  0  0  0
  1 18  1  0  0  0  0
 15 18  1  0  0  0  0
 18 19  1  0  0  0  0
 18 20  1  0  0  0  0
 13 21  1  0  0  0  0
 21 22  1  0  0  0  0
M  END
> <VConfSearch Rank>
373

> <Conf_Id>
41

> <Delta U+W>
-2.114

> <U+W>
4.310

> <U>
6.598

> <W>
-2.289

> <W(PB)>
-4.294

> <W(SA)>
2.005

> <Valence>
12.082

> <Coulomb>
-7.801

> <VdW>
2.317

> <VdW6>
-9.658

> <VdW12>
11.975

> <Bond>
0.267

> <Angle>
3.051

> <Pdih>
8.764

> <Idih>
0.000

> <Tether>
0.000

$$$$
VeraChem MOL file


 22 22  0  0  0  0  0  0  0  0999 V2000     
   20.6052   21.0340   23.2334 C   0  0  0  0  0  0  0  0  0  0  0  0
   20.9249   22.0811   23.3217 H   0  0  0  0  0  0  0  0  0  0  0  0
   20.3073   20.7168   24.2423 H   0  0  0  0  0  0  0  0  0  0  0  0
   21.8137   20.2098   22.7359 C   0  0  0  0  0  0  0  0  0  0  0  0
   22.0558   20.4985   21.7041 H   0  0  0  0  0  0  0  0  0  0  0  0
   22.6927   20.4778   23.3377 H   0  0  0  0  0  0  0  0  0  0  0  0
   21.6244   18.6789   22.8116 C   0  0  0  0  0  0  0  0  0  0  0  0
   21.5943   18.3660   23.8638 H   0  0  0  0  0  0  0  0  0  0  0  0
   22.5214   18.2058   22.3899 H   0  0  0  0  0  0  0  0  0  0  0  0
   20.3827   18.1294   22.0584 C   0  0  0  0  0  0  0  0  0  0  0  0
   20.3709   18.5050   21.0273 H   0  0  0  0  0  0  0  0  0  0  0  0
   20.4990   17.0412   21.9760 H   0  0  0  0  0  0  0  0  0  0  0  0
   19.0101   18.3924   22.7299 C   0  0  0  0  0  0  0  0  0  0  0  0
   18.2959   17.6925   22.2722 H   0  0  0  0  0  0  0  0  0  0  0  0
   18.4164   19.8102   22.5239 C   0  0  0  0  0  0  0  0  0  0  0  0
   17.7251   19.7675   21.6723 H   0  0  0  0  0  0  0  0  0  0  0  0
   17.7914   20.0656   23.3897 H   0  0  0  0  0  0  0  0  0  0  0  0
   19.4034   20.9754   22.2647 C   0  0  0  0  0  0  0  0  0  0  0  0
   19.7633   20.9356   21.2278 H   0  0  0  0  0  0  0  0  0  0  0  0
   18.8412   21.9157   22.3453 H   0  0  0  0  0  0  0  0  0  0  0  0
   19.0716   18.0958   24.1224 O   0  0  0  0  0  0  0  0  0  0  0  0
   18.1731   18.2409   24.4824 H   0  0  0  0  0  0  0  0  0  0  0  0
  1  2  1  0  0  0  0
  1  3  1  0  0  0  0
  1  4  1  0  0  0  0
  4  5  1  0  0  0  0
  4  6  1  0  0  0  0
  4  7  1  0  0  0  0
  7  8  1  0  0  0  0
  7  9  1  0  0  0  0
  7 10  1  0  0  0  0
 10 11  1  0  0  0  0
 10 12  1  0  0  0  0
 10 13  1  0  0  0  0
 13 14  1  0  0  0  0
 13 15  1  0  0  0  0
 15 16  1  0  0  0  0
 15 17  1  0  0  0  0
  1 18  1  0  0  0  0
 15 18  1  0  0  0  0
 18 19  1  0  0  0  0
 18 20  1  0  0  0  0
 13 21  1  0  0  0  0
 21 22  1  0  0  0  0
M  END
> <VConfSearch Rank>
374

> <Conf_Id>
104

> <Delta U+W>
-1.172

> <U+W>
5.252

> <U>
7.482

> <W>
-2.230

> <W(PB)>
-4.220

> <W(SA)>
1.990

> <Valence>
12.309

> <Coulomb>
-7.084

> <VdW>
2.258

> <VdW6>
-9.770

> <VdW12>
12.028

> <Bond>
0.284

> <Angle>
3.491

> <Pdih>
8.535

> <Idih>
0.000

> <Tether>
0.000

$$$$
VeraChem MOL file


 22 22  0  0  0  0  0  0  0  0999 V2000     
   20.6011   21.0152   23.2848 C   0  0  0  0  0  0  0  0  0  0  0  0
   20.3313   20.7454   24.3148 H   0  0  0  0  0  0  0  0  0  0  0  0
   21.0123   22.0326   23.3368 H   0  0  0  0  0  0  0  0  0  0  0  0
   19.3493   21.0569   22.3789 C   0  0  0  0  0  0  0  0  0  0  0  0
   18.8256   22.0078   22.5486 H   0  0  0  0  0  0  0  0  0  0  0  0
   19.6625   21.0891   21.3271 H   0  0  0  0  0  0  0  0  0  0  0  0
   18.3278   19.9111   22.5919 C   0  0  0  0  0  0  0  0  0  0  0  0
   17.7607   19.7733   21.6609 H   0  0  0  0  0  0  0  0  0  0  0  0
   17.5894   20.2379   23.3368 H   0  0  0  0  0  0  0  0  0  0  0  0
   18.8850   18.5383   23.0569 C   0  0  0  0  0  0  0  0  0  0  0  0
   19.0836   18.5785   24.1357 H   0  0  0  0  0  0  0  0  0  0  0  0
   18.0889   17.7919   22.9386 H   0  0  0  0  0  0  0  0  0  0  0  0
   20.1485   18.0111   22.3388 C   0  0  0  0  0  0  0  0  0  0  0  0
   20.1751   16.9212   22.4819 H   0  0  0  0  0  0  0  0  0  0  0  0
   21.4577   18.5723   22.9381 C   0  0  0  0  0  0  0  0  0  0  0  0
   21.4793   18.3437   24.0116 H   0  0  0  0  0  0  0  0  0  0  0  0
   22.2990   18.0186   22.5012 H   0  0  0  0  0  0  0  0  0  0  0  0
   21.7141   20.0872   22.7424 C   0  0  0  0  0  0  0  0  0  0  0  0
   22.6527   20.3384   23.2549 H   0  0  0  0  0  0  0  0  0  0  0  0
   21.8921   20.3005   21.6797 H   0  0  0  0  0  0  0  0  0  0  0  0
   20.0863   18.2926   20.9492 O   0  0  0  0  0  0  0  0  0  0  0  0
   19.9811   19.2639   20.9071 H   0  0  0  0  0  0  0  0  0  0  0  0
  1  2  1  0  0  0  0
  1  3  1  0  0  0  0
  1  4  1  0  0  0  0
  4  5  1  0  0  0  0
  4  6  1  0  0  0  0
  4  7  1  0  0  0  0
  7  8  1  0  0  0  0
  7  9  1  0  0  0  0
  7 10  1  0  0  0  0
 10 11  1  0  0  0  0
 10 12  1  0  0  0  0
 10 13  1  0  0  0  0
 13 14  1  0  0  0  0
 13 15  1  0  0  0  0
 15 16  1  0  0  0  0
 15 17  1  0  0  0  0
  1 18  1  0  0  0  0
 15 18  1  0  0  0  0
 18 19  1  0  0  0  0
 18 20  1  0  0  0  0
 13 21  1  0  0  0  0
 21 22  1  0  0  0  0
M  END
> <VConfSearch Rank>
375

> <Conf_Id>
99

> <Delta U+W>
-3.852

> <U+W>
2.572

> <U>
3.922

> <W>
-1.350

> <W(PB)>
-3.345

> <W(SA)>
1.995

> <Valence>
12.571

> <Coulomb>
-10.581

> <VdW>
1.932

> <VdW6>
-10.483

> <VdW12>
12.415

> <Bond>
0.268

> <Angle>
3.728

> <Pdih>
8.575

> <Idih>
0.000

> <Tether>
0.000

$$$$
VeraChem MOL file


 22 22  0  0  0  0  0  0  0  0999 V2000     
   18.7900   18.5741   22.9798 C   0  0  0  0  0  0  0  0  0  0  0  0
   17.8166   18.1380   22.7159 H   0  0  0  0  0  0  0  0  0  0  0  0
   19.0766   18.0799   23.9177 H   0  0  0  0  0  0  0  0  0  0  0  0
   18.5813   20.0983   23.2185 C   0  0  0  0  0  0  0  0  0  0  0  0
   17.5176   20.3220   23.0581 H   0  0  0  0  0  0  0  0  0  0  0  0
   18.7666   20.3452   24.2725 H   0  0  0  0  0  0  0  0  0  0  0  0
   19.4053   21.0469   22.3108 C   0  0  0  0  0  0  0  0  0  0  0  0
   19.0263   22.0693   22.4435 H   0  0  0  0  0  0  0  0  0  0  0  0
   19.2083   20.8145   21.2568 H   0  0  0  0  0  0  0  0  0  0  0  0
   20.9382   21.0716   22.5648 C   0  0  0  0  0  0  0  0  0  0  0  0
   21.4306   21.4400   21.6556 H   0  0  0  0  0  0  0  0  0  0  0  0
   21.1500   21.8252   23.3350 H   0  0  0  0  0  0  0  0  0  0  0  0
   21.6298   19.7553   22.9975 C   0  0  0  0  0  0  0  0  0  0  0  0
   22.7132   19.9182   22.9045 H   0  0  0  0  0  0  0  0  0  0  0  0
   21.2909   18.4964   22.1618 C   0  0  0  0  0  0  0  0  0  0  0  0
   21.8251   18.5603   21.2052 H   0  0  0  0  0  0  0  0  0  0  0  0
   21.7243   17.6298   22.6787 H   0  0  0  0  0  0  0  0  0  0  0  0
   19.7962   18.1931   21.8639 C   0  0  0  0  0  0  0  0  0  0  0  0
   19.5021   18.6709   20.9212 H   0  0  0  0  0  0  0  0  0  0  0  0
   19.7046   17.1161   21.6678 H   0  0  0  0  0  0  0  0  0  0  0  0
   21.3603   19.5040   24.3677 O   0  0  0  0  0  0  0  0  0  0  0  0
   20.3921   19.3668   24.3968 H   0  0  0  0  0  0  0  0  0  0  0  0
  1  2  1  0  0  0  0
  1  3  1  0  0  0  0
  1  4  1  0  0  0  0
  4  5  1  0  0  0  0
  4  6  1  0  0  0  0
  4  7  1  0  0  0  0
  7  8  1  0  0  0  0
  7  9  1  0  0  0  0
  7 10  1  0  0  0  0
 10 11  1  0  0  0  0
 10 12  1  0  0  0  0
 10 13  1  0  0  0  0
 13 14  1  0  0  0  0
 13 15  1  0  0  0  0
 15 16  1  0  0  0  0
 15 17  1  0  0  0  0
  1 18  1  0  0  0  0
 15 18  1  0  0  0  0
 18 19  1  0  0  0  0
 18 20  1  0  0  0  0
 13 21  1  0  0  0  0
 21 22  1  0  0  0  0
M  END
> <VConfSearch Rank>
376

> <Conf_Id>
98

> <Delta U+W>
0.930

> <U+W>
7.353

> <U>
8.455

> <W>
-1.102

> <W(PB)>
-3.101

> <W(SA)>
2.000

> <Valence>
15.601

> <Coulomb>
-10.573

> <VdW>
3.427

> <VdW6>
-11.360

> <VdW12>
14.787

> <Bond>
0.471

> <Angle>
5.445

> <Pdih>
9.685

> <Idih>
0.000

> <Tether>
0.000

$$$$
VeraChem MOL file


 22 22  0  0  0  0  0  0  0  0999 V2000     
   20.3167   17.8685   22.9553 C   0  0  0  0  0  0  0  0  0  0  0  0
   20.4171   18.1314   24.0163 H   0  0  0  0  0  0  0  0  0  0  0  0
   20.4271   16.7761   22.9206 H   0  0  0  0  0  0  0  0  0  0  0  0
   21.4737   18.5072   22.1456 C   0  0  0  0  0  0  0  0  0  0  0  0
   22.4170   18.1260   22.5600 H   0  0  0  0  0  0  0  0  0  0  0  0
   21.4382   18.1483   21.1080 H   0  0  0  0  0  0  0  0  0  0  0  0
   21.5375   20.0598   22.1469 C   0  0  0  0  0  0  0  0  0  0  0  0
   21.1621   20.4527   21.1931 H   0  0  0  0  0  0  0  0  0  0  0  0
   22.5938   20.3591   22.1799 H   0  0  0  0  0  0  0  0  0  0  0  0
   20.7892   20.7471   23.3197 C   0  0  0  0  0  0  0  0  0  0  0  0
   21.1223   20.3055   24.2672 H   0  0  0  0  0  0  0  0  0  0  0  0
   21.1133   21.7954   23.3684 H   0  0  0  0  0  0  0  0  0  0  0  0
   19.2344   20.7027   23.2536 C   0  0  0  0  0  0  0  0  0  0  0  0
   18.8612   20.4135   24.2467 H   0  0  0  0  0  0  0  0  0  0  0  0
   18.6286   19.7325   22.2086 C   0  0  0  0  0  0  0  0  0  0  0  0
   17.5416   19.8811   22.1738 H   0  0  0  0  0  0  0  0  0  0  0  0
   18.9852   19.9998   21.2066 H   0  0  0  0  0  0  0  0  0  0  0  0
   18.8939   18.2283   22.4667 C   0  0  0  0  0  0  0  0  0  0  0  0
   18.1743   17.8632   23.2121 H   0  0  0  0  0  0  0  0  0  0  0  0
   18.6789   17.6733   21.5434 H   0  0  0  0  0  0  0  0  0  0  0  0
   18.7588   22.0088   22.9488 O   0  0  0  0  0  0  0  0  0  0  0  0
   17.7801   21.9654   22.9701 H   0  0  0  0  0  0  0  0  0  0  0  0
  1  2  1  0  0  0  0
  1  3  1  0  0  0  0
  1  4  1  0  0  0  0
  4  5  1  0  0  0  0
  4  6  1  0  0  0  0
  4  7  1  0  0  0  0
  7  8  1  0  0  0  0
  7  9  1  0  0  0  0
  7 10  1  0  0  0  0
 10 11  1  0  0  0  0
 10 12  1  0  0  0  0
 10 13  1  0  0  0  0
 13 14  1  0  0  0  0
 13 15  1  0  0  0  0
 15 16  1  0  0  0  0
 15 17  1  0  0  0  0
  1 18  1  0  0  0  0
 15 18  1  0  0  0  0
 18 19  1  0  0  0  0
 18 20  1  0  0  0  0
 13 21  1  0  0  0  0
 21 22  1  0  0  0  0
M  END
> <VConfSearch Rank>
377

> <Conf_Id>
141

> <Delta U+W>
0.000

> <U+W>
6.423

> <U>
8.781

> <W>
-2.358

> <W(PB)>
-4.373

> <W(SA)>
2.015

> <Valence>
13.328

> <Coulomb>
-8.387

> <VdW>
3.840

> <VdW6>
-9.744

> <VdW12>
13.584

> <Bond>
0.436

> <Angle>
3.478

> <Pdih>
9.415

> <Idih>
0.000

> <Tether>
0.000

$$$$
VeraChem MOL file


 22 22  0  0  0  0  0  0  0  0999 V2000     
   19.5636   18.1189   21.8484 C   0  0  0  0  0  0  0  0  0  0  0  0
   18.8985   18.6924   21.1886 H   0  0  0  0  0  0  0  0  0  0  0  0
   19.5212   17.0800   21.4937 H   0  0  0  0  0  0  0  0  0  0  0  0
   19.0473   18.1384   23.3074 C   0  0  0  0  0  0  0  0  0  0  0  0
   18.1158   17.5581   23.3567 H   0  0  0  0  0  0  0  0  0  0  0  0
   19.7621   17.6107   23.9536 H   0  0  0  0  0  0  0  0  0  0  0  0
   18.7716   19.5434   23.8905 C   0  0  0  0  0  0  0  0  0  0  0  0
   18.4786   19.4260   24.9428 H   0  0  0  0  0  0  0  0  0  0  0  0
   17.9016   19.9841   23.3847 H   0  0  0  0  0  0  0  0  0  0  0  0
   19.9643   20.5279   23.8166 C   0  0  0  0  0  0  0  0  0  0  0  0
   19.7256   21.3873   24.4568 H   0  0  0  0  0  0  0  0  0  0  0  0
   20.8688   20.0730   24.2408 H   0  0  0  0  0  0  0  0  0  0  0  0
   20.2341   21.0314   22.3809 C   0  0  0  0  0  0  0  0  0  0  0  0
   19.2730   21.0886   21.8499 H   0  0  0  0  0  0  0  0  0  0  0  0
   21.1909   20.1397   21.5570 C   0  0  0  0  0  0  0  0  0  0  0  0
   21.0553   20.3978   20.4988 H   0  0  0  0  0  0  0  0  0  0  0  0
   22.2298   20.4005   21.7994 H   0  0  0  0  0  0  0  0  0  0  0  0
   21.0253   18.6081   21.7206 C   0  0  0  0  0  0  0  0  0  0  0  0
   21.4896   18.1218   20.8518 H   0  0  0  0  0  0  0  0  0  0  0  0
   21.6019   18.2671   22.5912 H   0  0  0  0  0  0  0  0  0  0  0  0
   20.7977   22.3355   22.4508 O   0  0  0  0  0  0  0  0  0  0  0  0
   20.1425   22.9019   22.9096 H   0  0  0  0  0  0  0  0  0  0  0  0
  1  2  1  0  0  0  0
  1  3  1  0  0  0  0
  1  4  1  0  0  0  0
  4  5  1  0  0  0  0
  4  6  1  0  0  0  0
  4  7  1  0  0  0  0
  7  8  1  0  0  0  0
  7  9  1  0  0  0  0
  7 10  1  0  0  0  0
 10 11  1  0  0  0  0
 10 12  1  0  0  0  0
 10 13  1  0  0  0  0
 13 14  1  0  0  0  0
 13 15  1  0  0  0  0
 15 16  1  0  0  0  0
 15 17  1  0  0  0  0
  1 18  1  0  0  0  0
 15 18  1  0  0  0  0
 18 19  1  0  0  0  0
 18 20  1  0  0  0  0
 13 21  1  0  0  0  0
 21 22  1  0  0  0  0
M  END
> <VConfSearch Rank>
378

> <Conf_Id>
144

> <Delta U+W>
-3.291

> <U+W>
3.132

> <U>
5.411

> <W>
-2.279

> <W(PB)>
-4.300

> <W(SA)>
2.021

> <Valence>
11.909

> <Coulomb>
-8.733

> <VdW>
2.236

> <VdW6>
-8.936

> <VdW12>
11.172

> <Bond>
0.223

> <Angle>
2.457

> <Pdih>
9.228

> <Idih>
0.000

> <Tether>
0.000

$$$$
VeraChem MOL file


 22 22  0  0  0  0  0  0  0  0999 V2000     
   18.4783   18.6960   22.2892 C   0  0  0  0  0  0  0  0  0  0  0  0
   17.4840   18.2310   22.3354 H   0  0  0  0  0  0  0  0  0  0  0  0
   18.8611   18.4952   21.2794 H   0  0  0  0  0  0  0  0  0  0  0  0
   19.3702   18.0255   23.3602 C   0  0  0  0  0  0  0  0  0  0  0  0
   19.1800   18.4899   24.3373 H   0  0  0  0  0  0  0  0  0  0  0  0
   19.0648   16.9759   23.4705 H   0  0  0  0  0  0  0  0  0  0  0  0
   20.8884   18.0510   23.0597 C   0  0  0  0  0  0  0  0  0  0  0  0
   21.1351   17.2126   22.3939 H   0  0  0  0  0  0  0  0  0  0  0  0
   21.4263   17.8553   23.9974 H   0  0  0  0  0  0  0  0  0  0  0  0
   21.4408   19.3504   22.4235 C   0  0  0  0  0  0  0  0  0  0  0  0
   22.5287   19.3620   22.5744 H   0  0  0  0  0  0  0  0  0  0  0  0
   21.2914   19.3114   21.3368 H   0  0  0  0  0  0  0  0  0  0  0  0
   20.8296   20.6573   22.9766 C   0  0  0  0  0  0  0  0  0  0  0  0
   20.6052   20.5353   24.0458 H   0  0  0  0  0  0  0  0  0  0  0  0
   19.5476   21.0776   22.2224 C   0  0  0  0  0  0  0  0  0  0  0  0
   19.3116   22.1181   22.4825 H   0  0  0  0  0  0  0  0  0  0  0  0
   19.7398   21.0713   21.1416 H   0  0  0  0  0  0  0  0  0  0  0  0
   18.2978   20.2156   22.5203 C   0  0  0  0  0  0  0  0  0  0  0  0
   17.9727   20.3912   23.5548 H   0  0  0  0  0  0  0  0  0  0  0  0
   17.4760   20.5714   21.8840 H   0  0  0  0  0  0  0  0  0  0  0  0
   21.7862   21.6974   22.8241 O   0  0  0  0  0  0  0  0  0  0  0  0
   21.9606   21.7742   21.8635 H   0  0  0  0  0  0  0  0  0  0  0  0
  1  2  1  0  0  0  0
  1  3  1  0  0  0  0
  1  4  1  0  0  0  0
  4  5  1  0  0  0  0
  4  6  1  0  0  0  0
  4  7  1  0  0  0  0
  7  8  1  0  0  0  0
  7  9  1  0  0  0  0
  7 10  1  0  0  0  0
 10 11  1  0  0  0  0
 10 12  1  0  0  0  0
 10 13  1  0  0  0  0
 13 14  1  0  0  0  0
 13 15  1  0  0  0  0
 15 16  1  0  0  0  0
 15 17  1  0  0  0  0
  1 18  1  0  0  0  0
 15 18  1  0  0  0  0
 18 19  1  0  0  0  0
 18 20  1  0  0  0  0
 13 21  1  0  0  0  0
 21 22  1  0  0  0  0
M  END
> <VConfSearch Rank>
379

> <Conf_Id>
76

> <Delta U+W>
-3.175

> <U+W>
3.248

> <U>
5.336

> <W>
-2.088

> <W(PB)>
-4.098

> <W(SA)>
2.010

> <Valence>
12.390

> <Coulomb>
-9.270

> <VdW>
2.216

> <VdW6>
-8.967

> <VdW12>
11.183

> <Bond>
0.218

> <Angle>
2.426

> <Pdih>
9.745

> <Idih>
0.000

> <Tether>
0.000

$$$$
VeraChem MOL file


 22 22  0  0  0  0  0  0  0  0999 V2000     
   18.7673   20.7405   22.0363 C   0  0  0  0  0  0  0  0  0  0  0  0
   18.9351   21.7157   21.5592 H   0  0  0  0  0  0  0  0  0  0  0  0
   17.6847   20.5630   21.9792 H   0  0  0  0  0  0  0  0  0  0  0  0
   19.1794   20.8520   23.5237 C   0  0  0  0  0  0  0  0  0  0  0  0
   20.0567   21.5069   23.6129 H   0  0  0  0  0  0  0  0  0  0  0  0
   18.3722   21.3676   24.0617 H   0  0  0  0  0  0  0  0  0  0  0  0
   19.4697   19.5047   24.2251 C   0  0  0  0  0  0  0  0  0  0  0  0
   18.7797   18.7235   23.8779 H   0  0  0  0  0  0  0  0  0  0  0  0
   19.2732   19.6296   25.2984 H   0  0  0  0  0  0  0  0  0  0  0  0
   20.9426   19.0499   24.0648 C   0  0  0  0  0  0  0  0  0  0  0  0
   21.6079   19.8746   24.3507 H   0  0  0  0  0  0  0  0  0  0  0  0
   21.1417   18.2469   24.7866 H   0  0  0  0  0  0  0  0  0  0  0  0
   21.3523   18.5429   22.6633 C   0  0  0  0  0  0  0  0  0  0  0  0
   22.4469   18.4381   22.6716 H   0  0  0  0  0  0  0  0  0  0  0  0
   20.9939   19.4886   21.4895 C   0  0  0  0  0  0  0  0  0  0  0  0
   21.4474   20.4745   21.6542 H   0  0  0  0  0  0  0  0  0  0  0  0
   21.4724   19.0902   20.5856 H   0  0  0  0  0  0  0  0  0  0  0  0
   19.4768   19.6432   21.2075 C   0  0  0  0  0  0  0  0  0  0  0  0
   19.3373   19.8809   20.1442 H   0  0  0  0  0  0  0  0  0  0  0  0
   18.9654   18.6837   21.3603 H   0  0  0  0  0  0  0  0  0  0  0  0
   20.7851   17.2550   22.4453 O   0  0  0  0  0  0  0  0  0  0  0  0
   21.0247   16.9957   21.5322 H   0  0  0  0  0  0  0  0  0  0  0  0
  1  2  1  0  0  0  0
  1  3  1  0  0  0  0
  1  4  1  0  0  0  0
  4  5  1  0  0  0  0
  4  6  1  0  0  0  0
  4  7  1  0  0  0  0
  7  8  1  0  0  0  0
  7  9  1  0  0  0  0
  7 10  1  0  0  0  0
 10 11  1  0  0  0  0
 10 12  1  0  0  0  0
 10 13  1  0  0  0  0
 13 14  1  0  0  0  0
 13 15  1  0  0  0  0
 15 16  1  0  0  0  0
 15 17  1  0  0  0  0
  1 18  1  0  0  0  0
 15 18  1  0  0  0  0
 18 19  1  0  0  0  0
 18 20  1  0  0  0  0
 13 21  1  0  0  0  0
 21 22  1  0  0  0  0
M  END
> <VConfSearch Rank>
380

> <Conf_Id>
95

> <Delta U+W>
-2.289

> <U+W>
4.134

> <U>
6.373

> <W>
-2.240

> <W(PB)>
-4.254

> <W(SA)>
2.015

> <Valence>
12.093

> <Coulomb>
-8.058

> <VdW>
2.339

> <VdW6>
-9.683

> <VdW12>
12.022

> <Bond>
0.268

> <Angle>
3.005

> <Pdih>
8.820

> <Idih>
0.000

> <Tether>
0.000

$$$$
VeraChem MOL file


 22 22  0  0  0  0  0  0  0  0999 V2000     
   20.1210   21.4102   22.0188 C   0  0  0  0  0  0  0  0  0  0  0  0
   19.2899   22.0314   21.6582 H   0  0  0  0  0  0  0  0  0  0  0  0
   21.0183   22.0394   21.9421 H   0  0  0  0  0  0  0  0  0  0  0  0
   20.2729   20.2026   21.0633 C   0  0  0  0  0  0  0  0  0  0  0  0
   19.2803   19.8795   20.7215 H   0  0  0  0  0  0  0  0  0  0  0  0
   20.7958   20.5477   20.1610 H   0  0  0  0  0  0  0  0  0  0  0  0
   21.0337   18.9921   21.6527 C   0  0  0  0  0  0  0  0  0  0  0  0
   21.8637   19.3227   22.2919 H   0  0  0  0  0  0  0  0  0  0  0  0
   21.4908   18.4397   20.8207 H   0  0  0  0  0  0  0  0  0  0  0  0
   20.1030   18.0145   22.4140 C   0  0  0  0  0  0  0  0  0  0  0  0
   19.2409   17.7721   21.7793 H   0  0  0  0  0  0  0  0  0  0  0  0
   20.6343   17.0649   22.5583 H   0  0  0  0  0  0  0  0  0  0  0  0
   19.5852   18.4967   23.7884 C   0  0  0  0  0  0  0  0  0  0  0  0
   18.8148   17.7797   24.1069 H   0  0  0  0  0  0  0  0  0  0  0  0
   18.9278   19.8996   23.7885 C   0  0  0  0  0  0  0  0  0  0  0  0
   18.0927   19.9220   23.0768 H   0  0  0  0  0  0  0  0  0  0  0  0
   18.4809   20.0482   24.7799 H   0  0  0  0  0  0  0  0  0  0  0  0
   19.8945   21.0809   23.5137 C   0  0  0  0  0  0  0  0  0  0  0  0
   19.4978   21.9817   24.0011 H   0  0  0  0  0  0  0  0  0  0  0  0
   20.8618   20.8919   23.9975 H   0  0  0  0  0  0  0  0  0  0  0  0
   20.6487   18.4545   24.7350 O   0  0  0  0  0  0  0  0  0  0  0  0
   21.0374   17.5577   24.6819 H   0  0  0  0  0  0  0  0  0  0  0  0
  1  2  1  0  0  0  0
  1  3  1  0  0  0  0
  1  4  1  0  0  0  0
  4  5  1  0  0  0  0
  4  6  1  0  0  0  0
  4  7  1  0  0  0  0
  7  8  1  0  0  0  0
  7  9  1  0  0  0  0
  7 10  1  0  0  0  0
 10 11  1  0  0  0  0
 10 12  1  0  0  0  0
 10 13  1  0  0  0  0
 13 14  1  0  0  0  0
 13 15  1  0  0  0  0
 15 16  1  0  0  0  0
 15 17  1  0  0  0  0
  1 18  1  0  0  0  0
 15 18  1  0  0  0  0
 18 19  1  0  0  0  0
 18 20  1  0  0  0  0
 13 21  1  0  0  0  0
 21 22  1  0  0  0  0
M  END
> <VConfSearch Rank>
381

> <Conf_Id>
41

> <Delta U+W>
-2.114

> <U+W>
4.310

> <U>
6.598

> <W>
-2.289

> <W(PB)>
-4.294

> <W(SA)>
2.005

> <Valence>
12.082

> <Coulomb>
-7.801

> <VdW>
2.317

> <VdW6>
-9.658

> <VdW12>
11.975

> <Bond>
0.267

> <Angle>
3.051

> <Pdih>
8.764

> <Idih>
0.000

> <Tether>
0.000

$$$$
VeraChem MOL file


 22 22  0  0  0  0  0  0  0  0999 V2000     
   18.5847   19.5343   23.4388 C   0  0  0  0  0  0  0  0  0  0  0  0
   17.7339   19.4793   24.1314 H   0  0  0  0  0  0  0  0  0  0  0  0
   18.2292   20.0855   22.5574 H   0  0  0  0  0  0  0  0  0  0  0  0
   18.9794   18.0899   23.0576 C   0  0  0  0  0  0  0  0  0  0  0  0
   19.3897   17.5765   23.9377 H   0  0  0  0  0  0  0  0  0  0  0  0
   18.0698   17.5382   22.7841 H   0  0  0  0  0  0  0  0  0  0  0  0
   19.9800   17.9834   21.8859 C   0  0  0  0  0  0  0  0  0  0  0  0
   19.4902   18.3039   20.9568 H   0  0  0  0  0  0  0  0  0  0  0  0
   20.2193   16.9214   21.7408 H   0  0  0  0  0  0  0  0  0  0  0  0
   21.3097   18.7614   22.0810 C   0  0  0  0  0  0  0  0  0  0  0  0
   21.7614   18.4991   23.0461 H   0  0  0  0  0  0  0  0  0  0  0  0
   22.0155   18.4090   21.3179 H   0  0  0  0  0  0  0  0  0  0  0  0
   21.2206   20.3032   21.9433 C   0  0  0  0  0  0  0  0  0  0  0  0
   22.2470   20.6655   21.7867 H   0  0  0  0  0  0  0  0  0  0  0  0
   20.6795   21.0631   23.1822 C   0  0  0  0  0  0  0  0  0  0  0  0
   21.5398   21.4029   23.7734 H   0  0  0  0  0  0  0  0  0  0  0  0
   20.1790   21.9815   22.8480 H   0  0  0  0  0  0  0  0  0  0  0  0
   19.7290   20.3008   24.1382 C   0  0  0  0  0  0  0  0  0  0  0  0
   20.3075   19.6116   24.7682 H   0  0  0  0  0  0  0  0  0  0  0  0
   19.2900   21.0330   24.8295 H   0  0  0  0  0  0  0  0  0  0  0  0
   20.4583   20.6575   20.7925 O   0  0  0  0  0  0  0  0  0  0  0  0
   20.4704   21.6345   20.7353 H   0  0  0  0  0  0  0  0  0  0  0  0
  1  2  1  0  0  0  0
  1  3  1  0  0  0  0
  1  4  1  0  0  0  0
  4  5  1  0  0  0  0
  4  6  1  0  0  0  0
  4  7  1  0  0  0  0
  7  8  1  0  0  0  0
  7  9  1  0  0  0  0
  7 10  1  0  0  0  0
 10 11  1  0  0  0  0
 10 12  1  0  0  0  0
 10 13  1  0  0  0  0
 13 14  1  0  0  0  0
 13 15  1  0  0  0  0
 15 16  1  0  0  0  0
 15 17  1  0  0  0  0
  1 18  1  0  0  0  0
 15 18  1  0  0  0  0
 18 19  1  0  0  0  0
 18 20  1  0  0  0  0
 13 21  1  0  0  0  0
 21 22  1  0  0  0  0
M  END
> <VConfSearch Rank>
382

> <Conf_Id>
104

> <Delta U+W>
-1.172

> <U+W>
5.252

> <U>
7.482

> <W>
-2.230

> <W(PB)>
-4.220

> <W(SA)>
1.990

> <Valence>
12.309

> <Coulomb>
-7.084

> <VdW>
2.258

> <VdW6>
-9.770

> <VdW12>
12.028

> <Bond>
0.284

> <Angle>
3.491

> <Pdih>
8.535

> <Idih>
0.000

> <Tether>
0.000

$$$$
VeraChem MOL file


 22 22  0  0  0  0  0  0  0  0999 V2000     
   21.1362   19.0195   23.7794 C   0  0  0  0  0  0  0  0  0  0  0  0
   21.6527   18.3826   23.0486 H   0  0  0  0  0  0  0  0  0  0  0  0
   21.6389   18.8453   24.7406 H   0  0  0  0  0  0  0  0  0  0  0  0
   19.6582   18.5946   23.9350 C   0  0  0  0  0  0  0  0  0  0  0  0
   19.6140   17.7136   24.5900 H   0  0  0  0  0  0  0  0  0  0  0  0
   19.1096   19.3775   24.4749 H   0  0  0  0  0  0  0  0  0  0  0  0
   18.9188   18.2420   22.6194 C   0  0  0  0  0  0  0  0  0  0  0  0
   17.8423   18.4005   22.7722 H   0  0  0  0  0  0  0  0  0  0  0  0
   19.0311   17.1647   22.4358 H   0  0  0  0  0  0  0  0  0  0  0  0
   19.3653   18.9850   21.3311 C   0  0  0  0  0  0  0  0  0  0  0  0
   20.2863   18.5236   20.9517 H   0  0  0  0  0  0  0  0  0  0  0  0
   18.6108   18.8011   20.5552 H   0  0  0  0  0  0  0  0  0  0  0  0
   19.5825   20.5119   21.4378 C   0  0  0  0  0  0  0  0  0  0  0  0
   19.4975   20.9260   20.4228 H   0  0  0  0  0  0  0  0  0  0  0  0
   20.9905   20.8831   21.9554 C   0  0  0  0  0  0  0  0  0  0  0  0
   21.7394   20.4142   21.3041 H   0  0  0  0  0  0  0  0  0  0  0  0
   21.1265   21.9653   21.8305 H   0  0  0  0  0  0  0  0  0  0  0  0
   21.3051   20.5166   23.4269 C   0  0  0  0  0  0  0  0  0  0  0  0
   22.3460   20.8033   23.6297 H   0  0  0  0  0  0  0  0  0  0  0  0
   20.6934   21.1298   24.1025 H   0  0  0  0  0  0  0  0  0  0  0  0
   18.5875   21.1007   22.2610 O   0  0  0  0  0  0  0  0  0  0  0  0
   18.6710   20.6266   23.1122 H   0  0  0  0  0  0  0  0  0  0  0  0
  1  2  1  0  0  0  0
  1  3  1  0  0  0  0
  1  4  1  0  0  0  0
  4  5  1  0  0  0  0
  4  6  1  0  0  0  0
  4  7  1  0  0  0  0
  7  8  1  0  0  0  0
  7  9  1  0  0  0  0
  7 10  1  0  0  0  0
 10 11  1  0  0  0  0
 10 12  1  0  0  0  0
 10 13  1  0  0  0  0
 13 14  1  0  0  0  0
 13 15  1  0  0  0  0
 15 16  1  0  0  0  0
 15 17  1  0  0  0  0
  1 18  1  0  0  0  0
 15 18  1  0  0  0  0
 18 19  1  0  0  0  0
 18 20  1  0  0  0  0
 13 21  1  0  0  0  0
 21 22  1  0  0  0  0
M  END
> <VConfSearch Rank>
383

> <Conf_Id>
99

> <Delta U+W>
-3.852

> <U+W>
2.572

> <U>
3.922

> <W>
-1.350

> <W(PB)>
-3.345

> <W(SA)>
1.995

> <Valence>
12.571

> <Coulomb>
-10.581

> <VdW>
1.932

> <VdW6>
-10.483

> <VdW12>
12.415

> <Bond>
0.268

> <Angle>
3.728

> <Pdih>
8.575

> <Idih>
0.000

> <Tether>
0.000

$$$$
VeraChem MOL file


 22 22  0  0  0  0  0  0  0  0999 V2000     
   20.0254   19.7441   24.3366 C   0  0  0  0  0  0  0  0  0  0  0  0
   19.5786   20.1367   25.2605 H   0  0  0  0  0  0  0  0  0  0  0  0
   20.8630   19.1177   24.6712 H   0  0  0  0  0  0  0  0  0  0  0  0
   20.5560   20.9532   23.5117 C   0  0  0  0  0  0  0  0  0  0  0  0
   20.3389   21.8691   24.0786 H   0  0  0  0  0  0  0  0  0  0  0  0
   21.6515   20.9144   23.4452 H   0  0  0  0  0  0  0  0  0  0  0  0
   19.9556   21.1228   22.0927 C   0  0  0  0  0  0  0  0  0  0  0  0
   20.2606   22.1033   21.7024 H   0  0  0  0  0  0  0  0  0  0  0  0
   18.8620   21.1801   22.1577 H   0  0  0  0  0  0  0  0  0  0  0  0
   20.3633   20.0476   21.0475 C   0  0  0  0  0  0  0  0  0  0  0  0
   19.6064   20.0375   20.2527 H   0  0  0  0  0  0  0  0  0  0  0  0
   21.2919   20.3728   20.5596 H   0  0  0  0  0  0  0  0  0  0  0  0
   20.5784   18.5945   21.5379 C   0  0  0  0  0  0  0  0  0  0  0  0
   20.6320   17.9596   20.6419 H   0  0  0  0  0  0  0  0  0  0  0  0
   19.4674   18.0047   22.4412 C   0  0  0  0  0  0  0  0  0  0  0  0
   18.6046   17.7530   21.8111 H   0  0  0  0  0  0  0  0  0  0  0  0
   19.8323   17.0448   22.8303 H   0  0  0  0  0  0  0  0  0  0  0  0
   18.9624   18.8590   23.6371 C   0  0  0  0  0  0  0  0  0  0  0  0
   18.1159   19.4794   23.3177 H   0  0  0  0  0  0  0  0  0  0  0  0
   18.5366   18.1742   24.3830 H   0  0  0  0  0  0  0  0  0  0  0  0
   21.8308   18.4949   22.1972 O   0  0  0  0  0  0  0  0  0  0  0  0
   21.7322   19.0725   22.9805 H   0  0  0  0  0  0  0  0  0  0  0  0
  1  2  1  0  0  0  0
  1  3  1  0  0  0  0
  1  4  1  0  0  0  0
  4  5  1  0  0  0  0
  4  6  1  0  0  0  0
  4  7  1  0  0  0  0
  7  8  1  0  0  0  0
  7  9  1  0  0  0  0
  7 10  1  0  0  0  0
 10 11  1  0  0  0  0
 10 12  1  0  0  0  0
 10 13  1  0  0  0  0
 13 14  1  0  0  0  0
 13 15  1  0  0  0  0
 15 16  1  0  0  0  0
 15 17  1  0  0  0  0
  1 18  1  0  0  0  0
 15 18  1  0  0  0  0
 18 19  1  0  0  0  0
 18 20  1  0  0  0  0
 13 21  1  0  0  0  0
 21 22  1  0  0  0  0
M  END
> <VConfSearch Rank>
384

> <Conf_Id>
98

> <Delta U+W>
0.930

> <U+W>
7.353

> <U>
8.455

> <W>
-1.102

> <W(PB)>
-3.101

> <W(SA)>
2.000

> <Valence>
15.601

> <Coulomb>
-10.573

> <VdW>
3.427

> <VdW6>
-11.360

> <VdW12>
14.787

> <Bond>
0.471

> <Angle>
5.445

> <Pdih>
9.685

> <Idih>
0.000

> <Tether>
0.000

$$$$
VeraChem MOL file


 22 22  0  0  0  0  0  0  0  0999 V2000     
   20.3883   18.3565   23.8505 C   0  0  0  0  0  0  0  0  0  0  0  0
   21.2512   18.0774   23.2322 H   0  0  0  0  0  0  0  0  0  0  0  0
   20.4645   17.7266   24.7473 H   0  0  0  0  0  0  0  0  0  0  0  0
   19.0750   18.0012   23.1082 C   0  0  0  0  0  0  0  0  0  0  0  0
   19.0880   16.9203   22.9123 H   0  0  0  0  0  0  0  0  0  0  0  0
   18.2183   18.1724   23.7742 H   0  0  0  0  0  0  0  0  0  0  0  0
   18.8282   18.7339   21.7604 C   0  0  0  0  0  0  0  0  0  0  0  0
   18.0870   19.5322   21.8961 H   0  0  0  0  0  0  0  0  0  0  0  0
   18.3563   18.0250   21.0665 H   0  0  0  0  0  0  0  0  0  0  0  0
   20.0989   19.3170   21.0872 C   0  0  0  0  0  0  0  0  0  0  0  0
   20.8597   18.5302   21.0122 H   0  0  0  0  0  0  0  0  0  0  0  0
   19.8528   19.5709   20.0474 H   0  0  0  0  0  0  0  0  0  0  0  0
   20.7216   20.5661   21.7771 C   0  0  0  0  0  0  0  0  0  0  0  0
   21.8081   20.4103   21.8432 H   0  0  0  0  0  0  0  0  0  0  0  0
   20.1927   20.8895   23.1969 C   0  0  0  0  0  0  0  0  0  0  0  0
   20.6128   21.8501   23.5225 H   0  0  0  0  0  0  0  0  0  0  0  0
   19.1086   21.0506   23.1591 H   0  0  0  0  0  0  0  0  0  0  0  0
   20.5205   19.8355   24.2838 C   0  0  0  0  0  0  0  0  0  0  0  0
   21.5479   19.9973   24.6375 H   0  0  0  0  0  0  0  0  0  0  0  0
   19.8713   20.0163   25.1513 H   0  0  0  0  0  0  0  0  0  0  0  0
   20.4717   21.7039   20.9596 O   0  0  0  0  0  0  0  0  0  0  0  0
   20.9218   22.4627   21.3860 H   0  0  0  0  0  0  0  0  0  0  0  0
  1  2  1  0  0  0  0
  1  3  1  0  0  0  0
  1  4  1  0  0  0  0
  4  5  1  0  0  0  0
  4  6  1  0  0  0  0
  4  7  1  0  0  0  0
  7  8  1  0  0  0  0
  7  9  1  0  0  0  0
  7 10  1  0  0  0  0
 10 11  1  0  0  0  0
 10 12  1  0  0  0  0
 10 13  1  0  0  0  0
 13 14  1  0  0  0  0
 13 15  1  0  0  0  0
 15 16  1  0  0  0  0
 15 17  1  0  0  0  0
  1 18  1  0  0  0  0
 15 18  1  0  0  0  0
 18 19  1  0  0  0  0
 18 20  1  0  0  0  0
 13 21  1  0  0  0  0
 21 22  1  0  0  0  0
M  END
> <VConfSearch Rank>
385

> <Conf_Id>
141

> <Delta U+W>
0.000

> <U+W>
6.423

> <U>
8.781

> <W>
-2.358

> <W(PB)>
-4.373

> <W(SA)>
2.015

> <Valence>
13.328

> <Coulomb>
-8.387

> <VdW>
3.840

> <VdW6>
-9.744

> <VdW12>
13.584

> <Bond>
0.436

> <Angle>
3.478

> <Pdih>
9.415

> <Idih>
0.000

> <Tether>
0.000

$$$$
VeraChem MOL file


 22 22  0  0  0  0  0  0  0  0999 V2000     
   20.7530   18.4492   21.6007 C   0  0  0  0  0  0  0  0  0  0  0  0
   20.7056   19.1903   20.7913 H   0  0  0  0  0  0  0  0  0  0  0  0
   21.2775   17.5782   21.1845 H   0  0  0  0  0  0  0  0  0  0  0  0
   19.3340   17.9895   22.0141 C   0  0  0  0  0  0  0  0  0  0  0  0
   18.9015   17.4054   21.1903 H   0  0  0  0  0  0  0  0  0  0  0  0
   19.4087   17.2971   22.8637 H   0  0  0  0  0  0  0  0  0  0  0  0
   18.3490   19.1276   22.3672 C   0  0  0  0  0  0  0  0  0  0  0  0
   17.4081   18.6732   22.7063 H   0  0  0  0  0  0  0  0  0  0  0  0
   18.0992   19.6895   21.4567 H   0  0  0  0  0  0  0  0  0  0  0  0
   18.8458   20.1077   23.4579 C   0  0  0  0  0  0  0  0  0  0  0  0
   17.9865   20.7116   23.7779 H   0  0  0  0  0  0  0  0  0  0  0  0
   19.1818   19.5592   24.3475 H   0  0  0  0  0  0  0  0  0  0  0  0
   19.9601   21.0502   22.9503 C   0  0  0  0  0  0  0  0  0  0  0  0
   19.7789   21.2552   21.8854 H   0  0  0  0  0  0  0  0  0  0  0  0
   21.3927   20.4891   23.0992 C   0  0  0  0  0  0  0  0  0  0  0  0
   22.0465   21.0700   22.4359 H   0  0  0  0  0  0  0  0  0  0  0  0
   21.7533   20.6794   24.1189 H   0  0  0  0  0  0  0  0  0  0  0  0
   21.5834   18.9829   22.7913 C   0  0  0  0  0  0  0  0  0  0  0  0
   22.6493   18.8102   22.5887 H   0  0  0  0  0  0  0  0  0  0  0  0
   21.3555   18.3925   23.6892 H   0  0  0  0  0  0  0  0  0  0  0  0
   19.8890   22.2742   23.6714 O   0  0  0  0  0  0  0  0  0  0  0  0
   18.9999   22.6503   23.5021 H   0  0  0  0  0  0  0  0  0  0  0  0
  1  2  1  0  0  0  0
  1  3  1  0  0  0  0
  1  4  1  0  0  0  0
  4  5  1  0  0  0  0
  4  6  1  0  0  0  0
  4  7  1  0  0  0  0
  7  8  1  0  0  0  0
  7  9  1  0  0  0  0
  7 10  1  0  0  0  0
 10 11  1  0  0  0  0
 10 12  1  0  0  0  0
 10 13  1  0  0  0  0
 13 14  1  0  0  0  0
 13 15  1  0  0  0  0
 15 16  1  0  0  0  0
 15 17  1  0  0  0  0
  1 18  1  0  0  0  0
 15 18  1  0  0  0  0
 18 19  1  0  0  0  0
 18 20  1  0  0  0  0
 13 21  1  0  0  0  0
 21 22  1  0  0  0  0
M  END
> <VConfSearch Rank>
386

> <Conf_Id>
144

> <Delta U+W>
-3.291

> <U+W>
3.132

> <U>
5.411

> <W>
-2.279

> <W(PB)>
-4.300

> <W(SA)>
2.021

> <Valence>
11.909

> <Coulomb>
-8.733

> <VdW>
2.236

> <VdW6>
-8.936

> <VdW12>
11.172

> <Bond>
0.223

> <Angle>
2.457

> <Pdih>
9.228

> <Idih>
0.000

> <Tether>
0.000

$$$$
VeraChem MOL file


 22 22  0  0  0  0  0  0  0  0999 V2000     
   18.5810   20.1972   23.5145 C   0  0  0  0  0  0  0  0  0  0  0  0
   17.7362   20.8137   23.8510 H   0  0  0  0  0  0  0  0  0  0  0  0
   18.6348   19.3493   24.2108 H   0  0  0  0  0  0  0  0  0  0  0  0
   19.8632   21.0583   23.5945 C   0  0  0  0  0  0  0  0  0  0  0  0
   19.9400   21.6841   22.6949 H   0  0  0  0  0  0  0  0  0  0  0  0
   19.7673   21.7615   24.4330 H   0  0  0  0  0  0  0  0  0  0  0  0
   21.1770   20.2629   23.7875 C   0  0  0  0  0  0  0  0  0  0  0  0
   21.3099   20.0462   24.8563 H   0  0  0  0  0  0  0  0  0  0  0  0
   22.0161   20.9151   23.5090 H   0  0  0  0  0  0  0  0  0  0  0  0
   21.2939   18.9303   23.0073 C   0  0  0  0  0  0  0  0  0  0  0  0
   22.3569   18.6565   22.9677 H   0  0  0  0  0  0  0  0  0  0  0  0
   20.8024   18.1331   23.5798 H   0  0  0  0  0  0  0  0  0  0  0  0
   20.7158   18.9613   21.5747 C   0  0  0  0  0  0  0  0  0  0  0  0
   20.8763   19.9556   21.1342 H   0  0  0  0  0  0  0  0  0  0  0  0
   19.2103   18.6136   21.5356 C   0  0  0  0  0  0  0  0  0  0  0  0
   18.9245   18.4046   20.4960 H   0  0  0  0  0  0  0  0  0  0  0  0
   19.0346   17.6834   22.0913 H   0  0  0  0  0  0  0  0  0  0  0  0
   18.2677   19.7141   22.0780 C   0  0  0  0  0  0  0  0  0  0  0  0
   18.2795   20.5733   21.3935 H   0  0  0  0  0  0  0  0  0  0  0  0
   17.2398   19.3274   22.0549 H   0  0  0  0  0  0  0  0  0  0  0  0
   21.4069   17.9960   20.7930 O   0  0  0  0  0  0  0  0  0  0  0  0
   21.2420   17.1282   21.2160 H   0  0  0  0  0  0  0  0  0  0  0  0
  1  2  1  0  0  0  0
  1  3  1  0  0  0  0
  1  4  1  0  0  0  0
  4  5  1  0  0  0  0
  4  6  1  0  0  0  0
  4  7  1  0  0  0  0
  7  8  1  0  0  0  0
  7  9  1  0  0  0  0
  7 10  1  0  0  0  0
 10 11  1  0  0  0  0
 10 12  1  0  0  0  0
 10 13  1  0  0  0  0
 13 14  1  0  0  0  0
 13 15  1  0  0  0  0
 15 16  1  0  0  0  0
 15 17  1  0  0  0  0
  1 18  1  0  0  0  0
 15 18  1  0  0  0  0
 18 19  1  0  0  0  0
 18 20  1  0  0  0  0
 13 21  1  0  0  0  0
 21 22  1  0  0  0  0
M  END
> <VConfSearch Rank>
387

> <Conf_Id>
76

> <Delta U+W>
-3.175

> <U+W>
3.248

> <U>
5.336

> <W>
-2.088

> <W(PB)>
-4.098

> <W(SA)>
2.010

> <Valence>
12.390

> <Coulomb>
-9.270

> <VdW>
2.216

> <VdW6>
-8.967

> <VdW12>
11.183

> <Bond>
0.218

> <Angle>
2.426

> <Pdih>
9.745

> <Idih>
0.000

> <Tether>
0.000

$$$$
VeraChem MOL file


 22 22  0  0  0  0  0  0  0  0999 V2000     
   20.3007   19.1901   20.8634 C   0  0  0  0  0  0  0  0  0  0  0  0
   19.6995   18.5141   20.2402 H   0  0  0  0  0  0  0  0  0  0  0  0
   21.0146   19.6697   20.1799 H   0  0  0  0  0  0  0  0  0  0  0  0
   21.0843   18.3352   21.8879 C   0  0  0  0  0  0  0  0  0  0  0  0
   20.4622   17.4900   22.2122 H   0  0  0  0  0  0  0  0  0  0  0  0
   21.9424   17.8862   21.3695 H   0  0  0  0  0  0  0  0  0  0  0  0
   21.5937   19.1049   23.1287 C   0  0  0  0  0  0  0  0  0  0  0  0
   21.9213   20.1176   22.8567 H   0  0  0  0  0  0  0  0  0  0  0  0
   22.4854   18.5880   23.5083 H   0  0  0  0  0  0  0  0  0  0  0  0
   20.5518   19.1520   24.2752 C   0  0  0  0  0  0  0  0  0  0  0  0
   20.1902   18.1355   24.4760 H   0  0  0  0  0  0  0  0  0  0  0  0
   21.0579   19.4719   25.1955 H   0  0  0  0  0  0  0  0  0  0  0  0
   19.3346   20.0787   24.0543 C   0  0  0  0  0  0  0  0  0  0  0  0
   18.6186   19.8588   24.8593 H   0  0  0  0  0  0  0  0  0  0  0  0
   18.5875   19.8769   22.7120 C   0  0  0  0  0  0  0  0  0  0  0  0
   18.2572   18.8339   22.6233 H   0  0  0  0  0  0  0  0  0  0  0  0
   17.6686   20.4759   22.7513 H   0  0  0  0  0  0  0  0  0  0  0  0
   19.3827   20.2908   21.4465 C   0  0  0  0  0  0  0  0  0  0  0  0
   18.6717   20.5865   20.6632 H   0  0  0  0  0  0  0  0  0  0  0  0
   19.9781   21.1898   21.6529 H   0  0  0  0  0  0  0  0  0  0  0  0
   19.7471   21.4354   24.1859 O   0  0  0  0  0  0  0  0  0  0  0  0
   18.9621   21.9859   23.9882 H   0  0  0  0  0  0  0  0  0  0  0  0
  1  2  1  0  0  0  0
  1  3  1  0  0  0  0
  1  4  1  0  0  0  0
  4  5  1  0  0  0  0
  4  6  1  0  0  0  0
  4  7  1  0  0  0  0
  7  8  1  0  0  0  0
  7  9  1  0  0  0  0
  7 10  1  0  0  0  0
 10 11  1  0  0  0  0
 10 12  1  0  0  0  0
 10 13  1  0  0  0  0
 13 14  1  0  0  0  0
 13 15  1  0  0  0  0
 15 16  1  0  0  0  0
 15 17  1  0  0  0  0
  1 18  1  0  0  0  0
 15 18  1  0  0  0  0
 18 19  1  0  0  0  0
 18 20  1  0  0  0  0
 13 21  1  0  0  0  0
 21 22  1  0  0  0  0
M  END
> <VConfSearch Rank>
388

> <Conf_Id>
95

> <Delta U+W>
-2.289

> <U+W>
4.134

> <U>
6.373

> <W>
-2.240

> <W(PB)>
-4.254

> <W(SA)>
2.015

> <Valence>
12.093

> <Coulomb>
-8.058

> <VdW>
2.339

> <VdW6>
-9.683

> <VdW12>
12.022

> <Bond>
0.268

> <Angle>
3.005

> <Pdih>
8.820

> <Idih>
0.000

> <Tether>
0.000

$$$$
VeraChem MOL file


 22 22  0  0  0  0  0  0  0  0999 V2000     
   19.5718   18.5254   24.1943 C   0  0  0  0  0  0  0  0  0  0  0  0
   19.0694   18.8242   25.1244 H   0  0  0  0  0  0  0  0  0  0  0  0
   19.7174   17.4392   24.2700 H   0  0  0  0  0  0  0  0  0  0  0  0
   20.9565   19.2145   24.1492 C   0  0  0  0  0  0  0  0  0  0  0  0
   20.8803   20.2179   24.5895 H   0  0  0  0  0  0  0  0  0  0  0  0
   21.6351   18.6559   24.8081 H   0  0  0  0  0  0  0  0  0  0  0  0
   21.5925   19.3161   22.7432 C   0  0  0  0  0  0  0  0  0  0  0  0
   21.3834   18.4148   22.1510 H   0  0  0  0  0  0  0  0  0  0  0  0
   22.6834   19.3546   22.8652 H   0  0  0  0  0  0  0  0  0  0  0  0
   21.1572   20.5934   21.9814 C   0  0  0  0  0  0  0  0  0  0  0  0
   21.2992   21.4656   22.6325 H   0  0  0  0  0  0  0  0  0  0  0  0
   21.8399   20.7474   21.1357 H   0  0  0  0  0  0  0  0  0  0  0  0
   19.7072   20.6071   21.4456 C   0  0  0  0  0  0  0  0  0  0  0  0
   19.5077   21.6302   21.0954 H   0  0  0  0  0  0  0  0  0  0  0  0
   18.6164   20.2641   22.4910 C   0  0  0  0  0  0  0  0  0  0  0  0
   18.6786   20.9582   23.3388 H   0  0  0  0  0  0  0  0  0  0  0  0
   17.6438   20.4539   22.0189 H   0  0  0  0  0  0  0  0  0  0  0  0
   18.6275   18.7989   22.9993 C   0  0  0  0  0  0  0  0  0  0  0  0
   17.6090   18.5239   23.3045 H   0  0  0  0  0  0  0  0  0  0  0  0
   18.8759   18.1192   22.1735 H   0  0  0  0  0  0  0  0  0  0  0  0
   19.6081   19.7287   20.3287 O   0  0  0  0  0  0  0  0  0  0  0  0
   20.3260   19.9766   19.7111 H   0  0  0  0  0  0  0  0  0  0  0  0
  1  2  1  0  0  0  0
  1  3  1  0  0  0  0
  1  4  1  0  0  0  0
  4  5  1  0  0  0  0
  4  6  1  0  0  0  0
  4  7  1  0  0  0  0
  7  8  1  0  0  0  0
  7  9  1  0  0  0  0
  7 10  1  0  0  0  0
 10 11  1  0  0  0  0
 10 12  1  0  0  0  0
 10 13  1  0  0  0  0
 13 14  1  0  0  0  0
 13 15  1  0  0  0  0
 15 16  1  0  0  0  0
 15 17  1  0  0  0  0
  1 18  1  0  0  0  0
 15 18  1  0  0  0  0
 18 19  1  0  0  0  0
 18 20  1  0  0  0  0
 13 21  1  0  0  0  0
 21 22  1  0  0  0  0
M  END
> <VConfSearch Rank>
389

> <Conf_Id>
41

> <Delta U+W>
-2.114

> <U+W>
4.310

> <U>
6.598

> <W>
-2.289

> <W(PB)>
-4.294

> <W(SA)>
2.005

> <Valence>
12.082

> <Coulomb>
-7.801

> <VdW>
2.317

> <VdW6>
-9.658

> <VdW12>
11.975

> <Bond>
0.267

> <Angle>
3.051

> <Pdih>
8.764

> <Idih>
0.000

> <Tether>
0.000

$$$$
VeraChem MOL file


 22 22  0  0  0  0  0  0  0  0999 V2000     
   18.6097   19.1809   23.4011 C   0  0  0  0  0  0  0  0  0  0  0  0
   17.5508   18.9748   23.6080 H   0  0  0  0  0  0  0  0  0  0  0  0
   19.1752   18.7655   24.2466 H   0  0  0  0  0  0  0  0  0  0  0  0
   18.7881   20.7138   23.3249 C   0  0  0  0  0  0  0  0  0  0  0  0
   18.2670   21.1008   22.4387 H   0  0  0  0  0  0  0  0  0  0  0  0
   18.2881   21.1686   24.1907 H   0  0  0  0  0  0  0  0  0  0  0  0
   20.2567   21.1914   23.3086 C   0  0  0  0  0  0  0  0  0  0  0  0
   20.7175   20.9893   24.2846 H   0  0  0  0  0  0  0  0  0  0  0  0
   20.2557   22.2848   23.2047 H   0  0  0  0  0  0  0  0  0  0  0  0
   21.1324   20.5939   22.1740 C   0  0  0  0  0  0  0  0  0  0  0  0
   20.6352   20.7270   21.2047 H   0  0  0  0  0  0  0  0  0  0  0  0
   22.0539   21.1875   22.1182 H   0  0  0  0  0  0  0  0  0  0  0  0
   21.5536   19.1122   22.3503 C   0  0  0  0  0  0  0  0  0  0  0  0
   22.3995   18.9417   21.6686 H   0  0  0  0  0  0  0  0  0  0  0  0
   20.4813   18.0550   21.9795 C   0  0  0  0  0  0  0  0  0  0  0  0
   20.6631   17.7367   20.9448 H   0  0  0  0  0  0  0  0  0  0  0  0
   20.6395   17.1559   22.5894 H   0  0  0  0  0  0  0  0  0  0  0  0
   18.9926   18.4693   22.0847 C   0  0  0  0  0  0  0  0  0  0  0  0
   18.7195   19.1001   21.2280 H   0  0  0  0  0  0  0  0  0  0  0  0
   18.3835   17.5603   21.9868 H   0  0  0  0  0  0  0  0  0  0  0  0
   22.0167   18.8804   23.6780 O   0  0  0  0  0  0  0  0  0  0  0  0
   22.3043   17.9458   23.7179 H   0  0  0  0  0  0  0  0  0  0  0  0
  1  2  1  0  0  0  0
  1  3  1  0  0  0  0
  1  4  1  0  0  0  0
  4  5  1  0  0  0  0
  4  6  1  0  0  0  0
  4  7  1  0  0  0  0
  7  8  1  0  0  0  0
  7  9  1  0  0  0  0
  7 10  1  0  0  0  0
 10 11  1  0  0  0  0
 10 12  1  0  0  0  0
 10 13  1  0  0  0  0
 13 14  1  0  0  0  0
 13 15  1  0  0  0  0
 15 16  1  0  0  0  0
 15 17  1  0  0  0  0
  1 18  1  0  0  0  0
 15 18  1  0  0  0  0
 18 19  1  0  0  0  0
 18 20  1  0  0  0  0
 13 21  1  0  0  0  0
 21 22  1  0  0  0  0
M  END
> <VConfSearch Rank>
390

> <Conf_Id>
104

> <Delta U+W>
-1.172

> <U+W>
5.252

> <U>
7.482

> <W>
-2.230

> <W(PB)>
-4.220

> <W(SA)>
1.990

> <Valence>
12.309

> <Coulomb>
-7.084

> <VdW>
2.258

> <VdW6>
-9.770

> <VdW12>
12.028

> <Bond>
0.284

> <Angle>
3.491

> <Pdih>
8.535

> <Idih>
0.000

> <Tether>
0.000

$$$$
VeraChem MOL file


 22 22  0  0  0  0  0  0  0  0999 V2000     
   20.9895   18.5590   23.5583 C   0  0  0  0  0  0  0  0  0  0  0  0
   20.3613   18.6657   24.4529 H   0  0  0  0  0  0  0  0  0  0  0  0
   21.8071   17.8824   23.8422 H   0  0  0  0  0  0  0  0  0  0  0  0
   21.6153   19.9147   23.1581 C   0  0  0  0  0  0  0  0  0  0  0  0
   22.4795   20.1073   23.8087 H   0  0  0  0  0  0  0  0  0  0  0  0
   22.0336   19.8375   22.1460 H   0  0  0  0  0  0  0  0  0  0  0  0
   20.6734   21.1420   23.2491 C   0  0  0  0  0  0  0  0  0  0  0  0
   21.0356   21.9107   22.5526 H   0  0  0  0  0  0  0  0  0  0  0  0
   20.7750   21.5845   24.2495 H   0  0  0  0  0  0  0  0  0  0  0  0
   19.1607   20.8982   22.9970 C   0  0  0  0  0  0  0  0  0  0  0  0
   18.7105   20.4701   23.9020 H   0  0  0  0  0  0  0  0  0  0  0  0
   18.6767   21.8753   22.8697 H   0  0  0  0  0  0  0  0  0  0  0  0
   18.7817   20.0131   21.7875 C   0  0  0  0  0  0  0  0  0  0  0  0
   17.7449   20.2577   21.5155 H   0  0  0  0  0  0  0  0  0  0  0  0
   18.8132   18.5032   22.1155 C   0  0  0  0  0  0  0  0  0  0  0  0
   18.1549   18.3161   22.9738 H   0  0  0  0  0  0  0  0  0  0  0  0
   18.3628   17.9608   21.2740 H   0  0  0  0  0  0  0  0  0  0  0  0
   20.2043   17.8877   22.4065 C   0  0  0  0  0  0  0  0  0  0  0  0
   20.0572   16.8291   22.6606 H   0  0  0  0  0  0  0  0  0  0  0  0
   20.8113   17.8896   21.4910 H   0  0  0  0  0  0  0  0  0  0  0  0
   19.6267   20.2913   20.6818 O   0  0  0  0  0  0  0  0  0  0  0  0
   20.5285   20.1315   21.0246 H   0  0  0  0  0  0  0  0  0  0  0  0
  1  2  1  0  0  0  0
  1  3  1  0  0  0  0
  1  4  1  0  0  0  0
  4  5  1  0  0  0  0
  4  6  1  0  0  0  0
  4  7  1  0  0  0  0
  7  8  1  0  0  0  0
  7  9  1  0  0  0  0
  7 10  1  0  0  0  0
 10 11  1  0  0  0  0
 10 12  1  0  0  0  0
 10 13  1  0  0  0  0
 13 14  1  0  0  0  0
 13 15  1  0  0  0  0
 15 16  1  0  0  0  0
 15 17  1  0  0  0  0
  1 18  1  0  0  0  0
 15 18  1  0  0  0  0
 18 19  1  0  0  0  0
 18 20  1  0  0  0  0
 13 21  1  0  0  0  0
 21 22  1  0  0  0  0
M  END
> <VConfSearch Rank>
391

> <Conf_Id>
99

> <Delta U+W>
-3.852

> <U+W>
2.572

> <U>
3.922

> <W>
-1.350

> <W(PB)>
-3.345

> <W(SA)>
1.995

> <Valence>
12.571

> <Coulomb>
-10.581

> <VdW>
1.932

> <VdW6>
-10.483

> <VdW12>
12.415

> <Bond>
0.268

> <Angle>
3.728

> <Pdih>
8.575

> <Idih>
0.000

> <Tether>
0.000

$$$$
VeraChem MOL file


 22 22  0  0  0  0  0  0  0  0999 V2000     
   19.9806   20.7376   23.8852 C   0  0  0  0  0  0  0  0  0  0  0  0
   19.6664   21.0669   24.8852 H   0  0  0  0  0  0  0  0  0  0  0  0
   20.5248   21.5932   23.4634 H   0  0  0  0  0  0  0  0  0  0  0  0
   18.6972   20.4540   23.0507 C   0  0  0  0  0  0  0  0  0  0  0  0
   17.8275   20.6607   23.6895 H   0  0  0  0  0  0  0  0  0  0  0  0
   18.6176   21.1717   22.2233 H   0  0  0  0  0  0  0  0  0  0  0  0
   18.5485   19.0117   22.5027 C   0  0  0  0  0  0  0  0  0  0  0  0
   17.5296   18.8939   22.1094 H   0  0  0  0  0  0  0  0  0  0  0  0
   18.6095   18.2933   23.3296 H   0  0  0  0  0  0  0  0  0  0  0  0
   19.5417   18.6040   21.3793 C   0  0  0  0  0  0  0  0  0  0  0  0
   19.6074   17.5085   21.3606 H   0  0  0  0  0  0  0  0  0  0  0  0
   19.1049   18.8848   20.4116 H   0  0  0  0  0  0  0  0  0  0  0  0
   20.9782   19.1804   21.4275 C   0  0  0  0  0  0  0  0  0  0  0  0
   21.5758   18.6097   20.7022 H   0  0  0  0  0  0  0  0  0  0  0  0
   21.7100   19.0834   22.7888 C   0  0  0  0  0  0  0  0  0  0  0  0
   22.0323   18.0446   22.9366 H   0  0  0  0  0  0  0  0  0  0  0  0
   22.6374   19.6660   22.7080 H   0  0  0  0  0  0  0  0  0  0  0  0
   20.9515   19.5427   24.0649 C   0  0  0  0  0  0  0  0  0  0  0  0
   20.4147   18.6921   24.5029 H   0  0  0  0  0  0  0  0  0  0  0  0
   21.7003   19.8154   24.8209 H   0  0  0  0  0  0  0  0  0  0  0  0
   20.9647   20.5299   20.9894 O   0  0  0  0  0  0  0  0  0  0  0  0
   20.4253   20.9915   21.6623 H   0  0  0  0  0  0  0  0  0  0  0  0
  1  2  1  0  0  0  0
  1  3  1  0  0  0  0
  1  4  1  0  0  0  0
  4  5  1  0  0  0  0
  4  6  1  0  0  0  0
  4  7  1  0  0  0  0
  7  8  1  0  0  0  0
  7  9  1  0  0  0  0
  7 10  1  0  0  0  0
 10 11  1  0  0  0  0
 10 12  1  0  0  0  0
 10 13  1  0  0  0  0
 13 14  1  0  0  0  0
 13 15  1  0  0  0  0
 15 16  1  0  0  0  0
 15 17  1  0  0  0  0
  1 18  1  0  0  0  0
 15 18  1  0  0  0  0
 18 19  1  0  0  0  0
 18 20  1  0  0  0  0
 13 21  1  0  0  0  0
 21 22  1  0  0  0  0
M  END
> <VConfSearch Rank>
392

> <Conf_Id>
98

> <Delta U+W>
0.930

> <U+W>
7.353

> <U>
8.455

> <W>
-1.102

> <W(PB)>
-3.101

> <W(SA)>
2.000

> <Valence>
15.601

> <Coulomb>
-10.573

> <VdW>
3.427

> <VdW6>
-11.360

> <VdW12>
14.787

> <Bond>
0.471

> <Angle>
5.445

> <Pdih>
9.685

> <Idih>
0.000

> <Tether>
0.000

$$$$
VeraChem MOL file


 22 22  0  0  0  0  0  0  0  0999 V2000     
   19.0802   19.4340   21.2166 C   0  0  0  0  0  0  0  0  0  0  0  0
   19.1298   20.5295   21.1702 H   0  0  0  0  0  0  0  0  0  0  0  0
   18.5385   19.1344   20.3091 H   0  0  0  0  0  0  0  0  0  0  0  0
   18.2515   18.9990   22.4520 C   0  0  0  0  0  0  0  0  0  0  0  0
   17.2491   19.4363   22.3483 H   0  0  0  0  0  0  0  0  0  0  0  0
   18.1048   17.9106   22.4316 H   0  0  0  0  0  0  0  0  0  0  0  0
   18.8180   19.4119   23.8388 C   0  0  0  0  0  0  0  0  0  0  0  0
   19.2874   18.5475   24.3261 H   0  0  0  0  0  0  0  0  0  0  0  0
   17.9732   19.6783   24.4883 H   0  0  0  0  0  0  0  0  0  0  0  0
   19.8186   20.5977   23.8133 C   0  0  0  0  0  0  0  0  0  0  0  0
   19.3680   21.4371   23.2693 H   0  0  0  0  0  0  0  0  0  0  0  0
   19.9456   20.9638   24.8410 H   0  0  0  0  0  0  0  0  0  0  0  0
   21.2209   20.2914   23.2104 C   0  0  0  0  0  0  0  0  0  0  0  0
   21.4793   21.1086   22.5216 H   0  0  0  0  0  0  0  0  0  0  0  0
   21.3495   18.9526   22.4414 C   0  0  0  0  0  0  0  0  0  0  0  0
   22.4027   18.7959   22.1743 H   0  0  0  0  0  0  0  0  0  0  0  0
   21.0972   18.1187   23.1074 H   0  0  0  0  0  0  0  0  0  0  0  0
   20.5102   18.8489   21.1435 C   0  0  0  0  0  0  0  0  0  0  0  0
   21.0468   19.3585   20.3316 H   0  0  0  0  0  0  0  0  0  0  0  0
   20.4525   17.7920   20.8497 H   0  0  0  0  0  0  0  0  0  0  0  0
   22.1713   20.2679   24.2693 O   0  0  0  0  0  0  0  0  0  0  0  0
   23.0499   20.1312   23.8575 H   0  0  0  0  0  0  0  0  0  0  0  0
  1  2  1  0  0  0  0
  1  3  1  0  0  0  0
  1  4  1  0  0  0  0
  4  5  1  0  0  0  0
  4  6  1  0  0  0  0
  4  7  1  0  0  0  0
  7  8  1  0  0  0  0
  7  9  1  0  0  0  0
  7 10  1  0  0  0  0
 10 11  1  0  0  0  0
 10 12  1  0  0  0  0
 10 13  1  0  0  0  0
 13 14  1  0  0  0  0
 13 15  1  0  0  0  0
 15 16  1  0  0  0  0
 15 17  1  0  0  0  0
  1 18  1  0  0  0  0
 15 18  1  0  0  0  0
 18 19  1  0  0  0  0
 18 20  1  0  0  0  0
 13 21  1  0  0  0  0
 21 22  1  0  0  0  0
M  END
> <VConfSearch Rank>
393

> <Conf_Id>
141

> <Delta U+W>
0.000

> <U+W>
6.423

> <U>
8.781

> <W>
-2.358

> <W(PB)>
-4.373

> <W(SA)>
2.015

> <Valence>
13.328

> <Coulomb>
-8.387

> <VdW>
3.840

> <VdW6>
-9.744

> <VdW12>
13.584

> <Bond>
0.436

> <Angle>
3.478

> <Pdih>
9.415

> <Idih>
0.000

> <Tether>
0.000

$$$$
VeraChem MOL file


 22 22  0  0  0  0  0  0  0  0999 V2000     
   18.3944   20.0955   23.2018 C   0  0  0  0  0  0  0  0  0  0  0  0
   18.8084   20.2408   24.2088 H   0  0  0  0  0  0  0  0  0  0  0  0
   17.3411   20.4025   23.2593 H   0  0  0  0  0  0  0  0  0  0  0  0
   18.4266   18.6010   22.8005 C   0  0  0  0  0  0  0  0  0  0  0  0
   17.7084   18.0548   23.4271 H   0  0  0  0  0  0  0  0  0  0  0  0
   18.0648   18.4931   21.7688 H   0  0  0  0  0  0  0  0  0  0  0  0
   19.8042   17.9121   22.9338 C   0  0  0  0  0  0  0  0  0  0  0  0
   19.7108   16.8841   22.5578 H   0  0  0  0  0  0  0  0  0  0  0  0
   20.0646   17.8196   23.9971 H   0  0  0  0  0  0  0  0  0  0  0  0
   20.9610   18.6112   22.1786 C   0  0  0  0  0  0  0  0  0  0  0  0
   21.8110   17.9167   22.1570 H   0  0  0  0  0  0  0  0  0  0  0  0
   20.6867   18.7909   21.1309 H   0  0  0  0  0  0  0  0  0  0  0  0
   21.4055   19.9274   22.8550 C   0  0  0  0  0  0  0  0  0  0  0  0
   21.2720   19.8185   23.9409 H   0  0  0  0  0  0  0  0  0  0  0  0
   20.6272   21.1809   22.3941 C   0  0  0  0  0  0  0  0  0  0  0  0
   20.7897   21.9659   23.1438 H   0  0  0  0  0  0  0  0  0  0  0  0
   21.0675   21.5595   21.4619 H   0  0  0  0  0  0  0  0  0  0  0  0
   19.1031   21.0098   22.1753 C   0  0  0  0  0  0  0  0  0  0  0  0
   18.6417   22.0062   22.2067 H   0  0  0  0  0  0  0  0  0  0  0  0
   18.9177   20.6319   21.1606 H   0  0  0  0  0  0  0  0  0  0  0  0
   22.7851   20.1400   22.5818 O   0  0  0  0  0  0  0  0  0  0  0  0
   23.2676   19.3701   22.9492 H   0  0  0  0  0  0  0  0  0  0  0  0
  1  2  1  0  0  0  0
  1  3  1  0  0  0  0
  1  4  1  0  0  0  0
  4  5  1  0  0  0  0
  4  6  1  0  0  0  0
  4  7  1  0  0  0  0
  7  8  1  0  0  0  0
  7  9  1  0  0  0  0
  7 10  1  0  0  0  0
 10 11  1  0  0  0  0
 10 12  1  0  0  0  0
 10 13  1  0  0  0  0
 13 14  1  0  0  0  0
 13 15  1  0  0  0  0
 15 16  1  0  0  0  0
 15 17  1  0  0  0  0
  1 18  1  0  0  0  0
 15 18  1  0  0  0  0
 18 19  1  0  0  0  0
 18 20  1  0  0  0  0
 13 21  1  0  0  0  0
 21 22  1  0  0  0  0
M  END
> <VConfSearch Rank>
394

> <Conf_Id>
144

> <Delta U+W>
-3.291

> <U+W>
3.132

> <U>
5.411

> <W>
-2.279

> <W(PB)>
-4.300

> <W(SA)>
2.021

> <Valence>
11.909

> <Coulomb>
-8.733

> <VdW>
2.236

> <VdW6>
-8.936

> <VdW12>
11.172

> <Bond>
0.223

> <Angle>
2.457

> <Pdih>
9.228

> <Idih>
0.000

> <Tether>
0.000

$$$$
VeraChem MOL file


 22 22  0  0  0  0  0  0  0  0999 V2000     
   20.9607   20.8343   22.0883 C   0  0  0  0  0  0  0  0  0  0  0  0
   21.7947   21.5312   21.9281 H   0  0  0  0  0  0  0  0  0  0  0  0
   20.1713   21.1388   21.3876 H   0  0  0  0  0  0  0  0  0  0  0  0
   20.4860   20.9850   23.5525 C   0  0  0  0  0  0  0  0  0  0  0  0
   21.1328   20.3881   24.2098 H   0  0  0  0  0  0  0  0  0  0  0  0
   20.6307   22.0275   23.8675 H   0  0  0  0  0  0  0  0  0  0  0  0
   19.0048   20.6125   23.8040 C   0  0  0  0  0  0  0  0  0  0  0  0
   18.3722   21.4762   23.5574 H   0  0  0  0  0  0  0  0  0  0  0  0
   18.8724   20.4440   24.8815 H   0  0  0  0  0  0  0  0  0  0  0  0
   18.4651   19.3835   23.0317 C   0  0  0  0  0  0  0  0  0  0  0  0
   17.5521   19.0427   23.5385 H   0  0  0  0  0  0  0  0  0  0  0  0
   18.1489   19.6984   22.0288 H   0  0  0  0  0  0  0  0  0  0  0  0
   19.4567   18.2049   22.9081 C   0  0  0  0  0  0  0  0  0  0  0  0
   20.0744   18.1467   23.8156 H   0  0  0  0  0  0  0  0  0  0  0  0
   20.3692   18.3259   21.6665 C   0  0  0  0  0  0  0  0  0  0  0  0
   20.8601   17.3585   21.4952 H   0  0  0  0  0  0  0  0  0  0  0  0
   19.7544   18.5156   20.7771 H   0  0  0  0  0  0  0  0  0  0  0  0
   21.4694   19.4094   21.7630 C   0  0  0  0  0  0  0  0  0  0  0  0
   22.2129   19.1073   22.5133 H   0  0  0  0  0  0  0  0  0  0  0  0
   22.0064   19.4394   20.8051 H   0  0  0  0  0  0  0  0  0  0  0  0
   18.7085   17.0027   22.7842 O   0  0  0  0  0  0  0  0  0  0  0  0
   18.1725   17.0932   21.9695 H   0  0  0  0  0  0  0  0  0  0  0  0
  1  2  1  0  0  0  0
  1  3  1  0  0  0  0
  1  4  1  0  0  0  0
  4  5  1  0  0  0  0
  4  6  1  0  0  0  0
  4  7  1  0  0  0  0
  7  8  1  0  0  0  0
  7  9  1  0  0  0  0
  7 10  1  0  0  0  0
 10 11  1  0  0  0  0
 10 12  1  0  0  0  0
 10 13  1  0  0  0  0
 13 14  1  0  0  0  0
 13 15  1  0  0  0  0
 15 16  1  0  0  0  0
 15 17  1  0  0  0  0
  1 18  1  0  0  0  0
 15 18  1  0  0  0  0
 18 19  1  0  0  0  0
 18 20  1  0  0  0  0
 13 21  1  0  0  0  0
 21 22  1  0  0  0  0
M  END
> <VConfSearch Rank>
395

> <Conf_Id>
76

> <Delta U+W>
-3.175

> <U+W>
3.248

> <U>
5.336

> <W>
-2.088

> <W(PB)>
-4.098

> <W(SA)>
2.010

> <Valence>
12.390

> <Coulomb>
-9.270

> <VdW>
2.216

> <VdW6>
-8.967

> <VdW12>
11.183

> <Bond>
0.218

> <Angle>
2.426

> <Pdih>
9.745

> <Idih>
0.000

> <Tether>
0.000

$$$$
VeraChem MOL file


 22 22  0  0  0  0  0  0  0  0999 V2000     
   19.8201   21.1655   23.6205 C   0  0  0  0  0  0  0  0  0  0  0  0
   20.0112   22.1830   23.2533 H   0  0  0  0  0  0  0  0  0  0  0  0
   19.3754   21.2871   24.6177 H   0  0  0  0  0  0  0  0  0  0  0  0
   21.1790   20.4391   23.7627 C   0  0  0  0  0  0  0  0  0  0  0  0
   21.8479   20.7501   22.9489 H   0  0  0  0  0  0  0  0  0  0  0  0
   21.6572   20.7916   24.6868 H   0  0  0  0  0  0  0  0  0  0  0  0
   21.0952   18.8953   23.7981 C   0  0  0  0  0  0  0  0  0  0  0  0
   20.2059   18.5619   24.3502 H   0  0  0  0  0  0  0  0  0  0  0  0
   21.9610   18.5195   24.3597 H   0  0  0  0  0  0  0  0  0  0  0  0
   21.1371   18.2596   22.3852 C   0  0  0  0  0  0  0  0  0  0  0  0
   21.9941   18.6652   21.8324 H   0  0  0  0  0  0  0  0  0  0  0  0
   21.3361   17.1850   22.4904 H   0  0  0  0  0  0  0  0  0  0  0  0
   19.8650   18.4262   21.5232 C   0  0  0  0  0  0  0  0  0  0  0  0
   20.1226   18.0879   20.5092 H   0  0  0  0  0  0  0  0  0  0  0  0
   19.3381   19.8779   21.3993 C   0  0  0  0  0  0  0  0  0  0  0  0
   20.1258   20.5262   20.9942 H   0  0  0  0  0  0  0  0  0  0  0  0
   18.5394   19.8771   20.6464 H   0  0  0  0  0  0  0  0  0  0  0  0
   18.7708   20.4871   22.7078 C   0  0  0  0  0  0  0  0  0  0  0  0
   18.0133   21.2390   22.4484 H   0  0  0  0  0  0  0  0  0  0  0  0
   18.2337   19.7187   23.2792 H   0  0  0  0  0  0  0  0  0  0  0  0
   18.8408   17.5751   22.0278 O   0  0  0  0  0  0  0  0  0  0  0  0
   18.0424   17.7496   21.4889 H   0  0  0  0  0  0  0  0  0  0  0  0
  1  2  1  0  0  0  0
  1  3  1  0  0  0  0
  1  4  1  0  0  0  0
  4  5  1  0  0  0  0
  4  6  1  0  0  0  0
  4  7  1  0  0  0  0
  7  8  1  0  0  0  0
  7  9  1  0  0  0  0
  7 10  1  0  0  0  0
 10 11  1  0  0  0  0
 10 12  1  0  0  0  0
 10 13  1  0  0  0  0
 13 14  1  0  0  0  0
 13 15  1  0  0  0  0
 15 16  1  0  0  0  0
 15 17  1  0  0  0  0
  1 18  1  0  0  0  0
 15 18  1  0  0  0  0
 18 19  1  0  0  0  0
 18 20  1  0  0  0  0
 13 21  1  0  0  0  0
 21 22  1  0  0  0  0
M  END
> <VConfSearch Rank>
396

> <Conf_Id>
95

> <Delta U+W>
-2.289

> <U+W>
4.134

> <U>
6.373

> <W>
-2.240

> <W(PB)>
-4.254

> <W(SA)>
2.015

> <Valence>
12.093

> <Coulomb>
-8.058

> <VdW>
2.339

> <VdW6>
-9.683

> <VdW12>
12.022

> <Bond>
0.268

> <Angle>
3.005

> <Pdih>
8.820

> <Idih>
0.000

> <Tether>
0.000

$$$$
VeraChem MOL file


 22 22  0  0  0  0  0  0  0  0999 V2000     
   18.9642   18.2333   21.9729 C   0  0  0  0  0  0  0  0  0  0  0  0
   17.8741   18.2232   21.8375 H   0  0  0  0  0  0  0  0  0  0  0  0
   19.3246   17.2813   21.5598 H   0  0  0  0  0  0  0  0  0  0  0  0
   19.2631   18.2659   23.4908 C   0  0  0  0  0  0  0  0  0  0  0  0
   18.5084   18.8811   23.9992 H   0  0  0  0  0  0  0  0  0  0  0  0
   19.1272   17.2496   23.8852 H   0  0  0  0  0  0  0  0  0  0  0  0
   20.6762   18.7667   23.8699 C   0  0  0  0  0  0  0  0  0  0  0  0
   21.4252   18.4143   23.1477 H   0  0  0  0  0  0  0  0  0  0  0  0
   20.9486   18.3184   24.8349 H   0  0  0  0  0  0  0  0  0  0  0  0
   20.7414   20.3067   24.0295 C   0  0  0  0  0  0  0  0  0  0  0  0
   19.9273   20.6340   24.6890 H   0  0  0  0  0  0  0  0  0  0  0  0
   21.6672   20.5657   24.5596 H   0  0  0  0  0  0  0  0  0  0  0  0
   20.6813   21.1309   22.7231 C   0  0  0  0  0  0  0  0  0  0  0  0
   20.5614   22.1837   23.0170 H   0  0  0  0  0  0  0  0  0  0  0  0
   19.5009   20.7853   21.7810 C   0  0  0  0  0  0  0  0  0  0  0  0
   18.5487   20.9092   22.3125 H   0  0  0  0  0  0  0  0  0  0  0  0
   19.4962   21.5344   20.9788 H   0  0  0  0  0  0  0  0  0  0  0  0
   19.5681   19.3802   21.1277 C   0  0  0  0  0  0  0  0  0  0  0  0
   19.0324   19.4111   20.1694 H   0  0  0  0  0  0  0  0  0  0  0  0
   20.6076   19.1374   20.8708 H   0  0  0  0  0  0  0  0  0  0  0  0
   21.9171   21.0028   22.0265 O   0  0  0  0  0  0  0  0  0  0  0  0
   22.6252   21.2145   22.6684 H   0  0  0  0  0  0  0  0  0  0  0  0
  1  2  1  0  0  0  0
  1  3  1  0  0  0  0
  1  4  1  0  0  0  0
  4  5  1  0  0  0  0
  4  6  1  0  0  0  0
  4  7  1  0  0  0  0
  7  8  1  0  0  0  0
  7  9  1  0  0  0  0
  7 10  1  0  0  0  0
 10 11  1  0  0  0  0
 10 12  1  0  0  0  0
 10 13  1  0  0  0  0
 13 14  1  0  0  0  0
 13 15  1  0  0  0  0
 15 16  1  0  0  0  0
 15 17  1  0  0  0  0
  1 18  1  0  0  0  0
 15 18  1  0  0  0  0
 18 19  1  0  0  0  0
 18 20  1  0  0  0  0
 13 21  1  0  0  0  0
 21 22  1  0  0  0  0
M  END
> <VConfSearch Rank>
397

> <Conf_Id>
41

> <Delta U+W>
-2.114

> <U+W>
4.310

> <U>
6.598

> <W>
-2.289

> <W(PB)>
-4.294

> <W(SA)>
2.005

> <Valence>
12.082

> <Coulomb>
-7.801

> <VdW>
2.317

> <VdW6>
-9.658

> <VdW12>
11.975

> <Bond>
0.267

> <Angle>
3.051

> <Pdih>
8.764

> <Idih>
0.000

> <Tether>
0.000

$$$$
VeraChem MOL file


 22 22  0  0  0  0  0  0  0  0999 V2000     
   19.4572   18.5740   21.5100 C   0  0  0  0  0  0  0  0  0  0  0  0
   19.1058   17.7453   20.8804 H   0  0  0  0  0  0  0  0  0  0  0  0
   18.9624   19.4792   21.1321 H   0  0  0  0  0  0  0  0  0  0  0  0
   20.9897   18.6788   21.3431 C   0  0  0  0  0  0  0  0  0  0  0  0
   21.4687   17.7934   21.7826 H   0  0  0  0  0  0  0  0  0  0  0  0
   21.2287   18.6497   20.2714 H   0  0  0  0  0  0  0  0  0  0  0  0
   21.6173   19.9557   21.9439 C   0  0  0  0  0  0  0  0  0  0  0  0
   21.2970   20.8294   21.3609 H   0  0  0  0  0  0  0  0  0  0  0  0
   22.7053   19.8943   21.8076 H   0  0  0  0  0  0  0  0  0  0  0  0
   21.3264   20.1875   23.4515 C   0  0  0  0  0  0  0  0  0  0  0  0
   21.5740   19.2859   24.0259 H   0  0  0  0  0  0  0  0  0  0  0  0
   22.0157   20.9640   23.8071 H   0  0  0  0  0  0  0  0  0  0  0  0
   19.8906   20.6565   23.8015 C   0  0  0  0  0  0  0  0  0  0  0  0
   19.9344   21.0746   24.8177 H   0  0  0  0  0  0  0  0  0  0  0  0
   18.8065   19.5481   23.8379 C   0  0  0  0  0  0  0  0  0  0  0  0
   18.6968   19.2157   24.8784 H   0  0  0  0  0  0  0  0  0  0  0  0
   17.8362   19.9878   23.5722 H   0  0  0  0  0  0  0  0  0  0  0  0
   19.0338   18.2872   22.9676 C   0  0  0  0  0  0  0  0  0  0  0  0
   19.7728   17.6312   23.4472 H   0  0  0  0  0  0  0  0  0  0  0  0
   18.0965   17.7147   22.9548 H   0  0  0  0  0  0  0  0  0  0  0  0
   19.4794   21.7008   22.9233 O   0  0  0  0  0  0  0  0  0  0  0  0
   18.5886   21.9817   23.2155 H   0  0  0  0  0  0  0  0  0  0  0  0
  1  2  1  0  0  0  0
  1  3  1  0  0  0  0
  1  4  1  0  0  0  0
  4  5  1  0  0  0  0
  4  6  1  0  0  0  0
  4  7  1  0  0  0  0
  7  8  1  0  0  0  0
  7  9  1  0  0  0  0
  7 10  1  0  0  0  0
 10 11  1  0  0  0  0
 10 12  1  0  0  0  0
 10 13  1  0  0  0  0
 13 14  1  0  0  0  0
 13 15  1  0  0  0  0
 15 16  1  0  0  0  0
 15 17  1  0  0  0  0
  1 18  1  0  0  0  0
 15 18  1  0  0  0  0
 18 19  1  0  0  0  0
 18 20  1  0  0  0  0
 13 21  1  0  0  0  0
 21 22  1  0  0  0  0
M  END
> <VConfSearch Rank>
398

> <Conf_Id>
104

> <Delta U+W>
-1.172

> <U+W>
5.252

> <U>
7.482

> <W>
-2.230

> <W(PB)>
-4.220

> <W(SA)>
1.990

> <Valence>
12.309

> <Coulomb>
-7.084

> <VdW>
2.258

> <VdW6>
-9.770

> <VdW12>
12.028

> <Bond>
0.284

> <Angle>
3.491

> <Pdih>
8.535

> <Idih>
0.000

> <Tether>
0.000

$$$$
VeraChem MOL file


 22 22  0  0  0  0  0  0  0  0999 V2000     
   19.6210   20.4628   21.3484 C   0  0  0  0  0  0  0  0  0  0  0  0
   20.1395   19.7914   20.6506 H   0  0  0  0  0  0  0  0  0  0  0  0
   19.1863   21.2618   20.7322 H   0  0  0  0  0  0  0  0  0  0  0  0
   20.6192   21.1146   22.3324 C   0  0  0  0  0  0  0  0  0  0  0  0
   21.1228   21.9464   21.8208 H   0  0  0  0  0  0  0  0  0  0  0  0
   20.0646   21.5822   23.1565 H   0  0  0  0  0  0  0  0  0  0  0  0
   21.7149   20.1757   22.8976 C   0  0  0  0  0  0  0  0  0  0  0  0
   22.0512   20.5759   23.8641 H   0  0  0  0  0  0  0  0  0  0  0  0
   22.5925   20.2298   22.2389 H   0  0  0  0  0  0  0  0  0  0  0  0
   21.3490   18.6761   23.0669 C   0  0  0  0  0  0  0  0  0  0  0  0
   21.4099   18.1794   22.0899 H   0  0  0  0  0  0  0  0  0  0  0  0
   22.1287   18.2040   23.6786 H   0  0  0  0  0  0  0  0  0  0  0  0
   19.9777   18.3530   23.7034 C   0  0  0  0  0  0  0  0  0  0  0  0
   20.0372   17.3322   24.1075 H   0  0  0  0  0  0  0  0  0  0  0  0
   18.8227   18.3604   22.6766 C   0  0  0  0  0  0  0  0  0  0  0  0
   19.0668   17.6594   21.8679 H   0  0  0  0  0  0  0  0  0  0  0  0
   17.9290   17.9495   23.1641 H   0  0  0  0  0  0  0  0  0  0  0  0
   18.4562   19.7322   22.0581 C   0  0  0  0  0  0  0  0  0  0  0  0
   17.6550   19.5672   21.3250 H   0  0  0  0  0  0  0  0  0  0  0  0
   18.0217   20.3839   22.8282 H   0  0  0  0  0  0  0  0  0  0  0  0
   19.6956   19.2533   24.7636 O   0  0  0  0  0  0  0  0  0  0  0  0
   19.7421   20.1361   24.3457 H   0  0  0  0  0  0  0  0  0  0  0  0
  1  2  1  0  0  0  0
  1  3  1  0  0  0  0
  1  4  1  0  0  0  0
  4  5  1  0  0  0  0
  4  6  1  0  0  0  0
  4  7  1  0  0  0  0
  7  8  1  0  0  0  0
  7  9  1  0  0  0  0
  7 10  1  0  0  0  0
 10 11  1  0  0  0  0
 10 12  1  0  0  0  0
 10 13  1  0  0  0  0
 13 14  1  0  0  0  0
 13 15  1  0  0  0  0
 15 16  1  0  0  0  0
 15 17  1  0  0  0  0
  1 18  1  0  0  0  0
 15 18  1  0  0  0  0
 18 19  1  0  0  0  0
 18 20  1  0  0  0  0
 13 21  1  0  0  0  0
 21 22  1  0  0  0  0
M  END
> <VConfSearch Rank>
399

> <Conf_Id>
99

> <Delta U+W>
-3.852

> <U+W>
2.572

> <U>
3.922

> <W>
-1.350

> <W(PB)>
-3.345

> <W(SA)>
1.995

> <Valence>
12.571

> <Coulomb>
-10.581

> <VdW>
1.932

> <VdW6>
-10.483

> <VdW12>
12.415

> <Bond>
0.268

> <Angle>
3.728

> <Pdih>
8.575

> <Idih>
0.000

> <Tether>
0.000

$$$$
VeraChem MOL file


 22 22  0  0  0  0  0  0  0  0999 V2000     
   20.2909   21.1043   23.3460 C   0  0  0  0  0  0  0  0  0  0  0  0
   20.4809   22.1832   23.2605 H   0  0  0  0  0  0  0  0  0  0  0  0
   20.1638   20.9237   24.4217 H   0  0  0  0  0  0  0  0  0  0  0  0
   21.5506   20.3547   22.8213 C   0  0  0  0  0  0  0  0  0  0  0  0
   22.2858   21.1091   22.5089 H   0  0  0  0  0  0  0  0  0  0  0  0
   22.0357   19.8096   23.6420 H   0  0  0  0  0  0  0  0  0  0  0  0
   21.3209   19.3956   21.6255 C   0  0  0  0  0  0  0  0  0  0  0  0
   22.3005   19.0884   21.2347 H   0  0  0  0  0  0  0  0  0  0  0  0
   20.8528   19.9419   20.7972 H   0  0  0  0  0  0  0  0  0  0  0  0
   20.5064   18.1081   21.9315 C   0  0  0  0  0  0  0  0  0  0  0  0
   20.0847   17.7368   20.9885 H   0  0  0  0  0  0  0  0  0  0  0  0
   21.2035   17.3277   22.2646 H   0  0  0  0  0  0  0  0  0  0  0  0
   19.3676   18.1937   22.9775 C   0  0  0  0  0  0  0  0  0  0  0  0
   18.7793   17.2694   22.8854 H   0  0  0  0  0  0  0  0  0  0  0  0
   18.3783   19.3744   22.8182 C   0  0  0  0  0  0  0  0  0  0  0  0
   17.7049   19.1527   21.9803 H   0  0  0  0  0  0  0  0  0  0  0  0
   17.7367   19.3908   23.7093 H   0  0  0  0  0  0  0  0  0  0  0  0
   18.9625   20.7989   22.6079 C   0  0  0  0  0  0  0  0  0  0  0  0
   19.0811   20.9958   21.5352 H   0  0  0  0  0  0  0  0  0  0  0  0
   18.2071   21.5241   22.9397 H   0  0  0  0  0  0  0  0  0  0  0  0
   19.9212   18.2093   24.2838 O   0  0  0  0  0  0  0  0  0  0  0  0
   20.4306   19.0439   24.3147 H   0  0  0  0  0  0  0  0  0  0  0  0
  1  2  1  0  0  0  0
  1  3  1  0  0  0  0
  1  4  1  0  0  0  0
  4  5  1  0  0  0  0
  4  6  1  0  0  0  0
  4  7  1  0  0  0  0
  7  8  1  0  0  0  0
  7  9  1  0  0  0  0
  7 10  1  0  0  0  0
 10 11  1  0  0  0  0
 10 12  1  0  0  0  0
 10 13  1  0  0  0  0
 13 14  1  0  0  0  0
 13 15  1  0  0  0  0
 15 16  1  0  0  0  0
 15 17  1  0  0  0  0
  1 18  1  0  0  0  0
 15 18  1  0  0  0  0
 18 19  1  0  0  0  0
 18 20  1  0  0  0  0
 13 21  1  0  0  0  0
 21 22  1  0  0  0  0
M  END
> <VConfSearch Rank>
400

> <Conf_Id>
98

> <Delta U+W>
0.930

> <U+W>
7.353

> <U>
8.455

> <W>
-1.102

> <W(PB)>
-3.101

> <W(SA)>
2.000

> <Valence>
15.601

> <Coulomb>
-10.573

> <VdW>
3.427

> <VdW6>
-11.360

> <VdW12>
14.787

> <Bond>
0.471

> <Angle>
5.445

> <Pdih>
9.685

> <Idih>
0.000

> <Tether>
0.000

$$$$
VeraChem MOL file


 22 22  0  0  0  0  0  0  0  0999 V2000     
   21.6663   19.9840   22.8195 C   0  0  0  0  0  0  0  0  0  0  0  0
   21.8236   19.0239   23.3276 H   0  0  0  0  0  0  0  0  0  0  0  0
   22.6625   20.4437   22.7638 H   0  0  0  0  0  0  0  0  0  0  0  0
   20.7525   20.8903   23.6832 C   0  0  0  0  0  0  0  0  0  0  0  0
   21.2491   21.0325   24.6527 H   0  0  0  0  0  0  0  0  0  0  0  0
   20.6920   21.8893   23.2306 H   0  0  0  0  0  0  0  0  0  0  0  0
   19.3155   20.3622   23.9489 C   0  0  0  0  0  0  0  0  0  0  0  0
   18.5957   20.8931   23.3124 H   0  0  0  0  0  0  0  0  0  0  0  0
   19.0363   20.6314   24.9766 H   0  0  0  0  0  0  0  0  0  0  0  0
   19.1342   18.8316   23.7694 C   0  0  0  0  0  0  0  0  0  0  0  0
   19.8971   18.3073   24.3581 H   0  0  0  0  0  0  0  0  0  0  0  0
   18.1780   18.5417   24.2256 H   0  0  0  0  0  0  0  0  0  0  0  0
   19.1718   18.3097   22.3031 C   0  0  0  0  0  0  0  0  0  0  0  0
   19.8208   17.4225   22.2758 H   0  0  0  0  0  0  0  0  0  0  0  0
   19.6820   19.3143   21.2397 C   0  0  0  0  0  0  0  0  0  0  0  0
   19.5464   18.8759   20.2425 H   0  0  0  0  0  0  0  0  0  0  0  0
   19.0501   20.2105   21.2455 H   0  0  0  0  0  0  0  0  0  0  0  0
   21.1681   19.7296   21.3774 C   0  0  0  0  0  0  0  0  0  0  0  0
   21.7983   18.9482   20.9312 H   0  0  0  0  0  0  0  0  0  0  0  0
   21.3348   20.6322   20.7740 H   0  0  0  0  0  0  0  0  0  0  0  0
   17.8542   17.9243   21.9280 O   0  0  0  0  0  0  0  0  0  0  0  0
   17.9161   17.5476   21.0255 H   0  0  0  0  0  0  0  0  0  0  0  0
  1  2  1  0  0  0  0
  1  3  1  0  0  0  0
  1  4  1  0  0  0  0
  4  5  1  0  0  0  0
  4  6  1  0  0  0  0
  4  7  1  0  0  0  0
  7  8  1  0  0  0  0
  7  9  1  0  0  0  0
  7 10  1  0  0  0  0
 10 11  1  0  0  0  0
 10 12  1  0  0  0  0
 10 13  1  0  0  0  0
 13 14  1  0  0  0  0
 13 15  1  0  0  0  0
 15 16  1  0  0  0  0
 15 17  1  0  0  0  0
  1 18  1  0  0  0  0
 15 18  1  0  0  0  0
 18 19  1  0  0  0  0
 18 20  1  0  0  0  0
 13 21  1  0  0  0  0
 21 22  1  0  0  0  0
M  END
> <VConfSearch Rank>
401

> <Conf_Id>
141

> <Delta U+W>
0.000

> <U+W>
6.423

> <U>
8.781

> <W>
-2.358

> <W(PB)>
-4.373

> <W(SA)>
2.015

> <Valence>
13.328

> <Coulomb>
-8.387

> <VdW>
3.840

> <VdW6>
-9.744

> <VdW12>
13.584

> <Bond>
0.436

> <Angle>
3.478

> <Pdih>
9.415

> <Idih>
0.000

> <Tether>
0.000

$$$$
VeraChem MOL file


 22 22  0  0  0  0  0  0  0  0999 V2000     
   20.4636   20.2979   24.1939 C   0  0  0  0  0  0  0  0  0  0  0  0
   20.5176   21.2824   23.7096 H   0  0  0  0  0  0  0  0  0  0  0  0
   20.6863   20.4693   25.2559 H   0  0  0  0  0  0  0  0  0  0  0  0
   21.5479   19.3456   23.6344 C   0  0  0  0  0  0  0  0  0  0  0  0
   22.5331   19.7088   23.9575 H   0  0  0  0  0  0  0  0  0  0  0  0
   21.4315   18.3531   24.0908 H   0  0  0  0  0  0  0  0  0  0  0  0
   21.5682   19.2013   22.0952 C   0  0  0  0  0  0  0  0  0  0  0  0
   22.3291   18.4542   21.8313 H   0  0  0  0  0  0  0  0  0  0  0  0
   21.9059   20.1447   21.6448 H   0  0  0  0  0  0  0  0  0  0  0  0
   20.2206   18.7799   21.4599 C   0  0  0  0  0  0  0  0  0  0  0  0
   20.4201   18.4903   20.4198 H   0  0  0  0  0  0  0  0  0  0  0  0
   19.8221   17.8850   21.9551 H   0  0  0  0  0  0  0  0  0  0  0  0
   19.1740   19.9166   21.4722 C   0  0  0  0  0  0  0  0  0  0  0  0
   19.7043   20.8739   21.3662 H   0  0  0  0  0  0  0  0  0  0  0  0
   18.3101   19.9800   22.7524 C   0  0  0  0  0  0  0  0  0  0  0  0
   17.8522   20.9767   22.7940 H   0  0  0  0  0  0  0  0  0  0  0  0
   17.4771   19.2698   22.6642 H   0  0  0  0  0  0  0  0  0  0  0  0
   19.0366   19.7100   24.0939 C   0  0  0  0  0  0  0  0  0  0  0  0
   18.4214   20.1270   24.9029 H   0  0  0  0  0  0  0  0  0  0  0  0
   19.0735   18.6281   24.2804 H   0  0  0  0  0  0  0  0  0  0  0  0
   18.3027   19.7496   20.3604 O   0  0  0  0  0  0  0  0  0  0  0  0
   18.8612   19.7882   19.5558 H   0  0  0  0  0  0  0  0  0  0  0  0
  1  2  1  0  0  0  0
  1  3  1  0  0  0  0
  1  4  1  0  0  0  0
  4  5  1  0  0  0  0
  4  6  1  0  0  0  0
  4  7  1  0  0  0  0
  7  8  1  0  0  0  0
  7  9  1  0  0  0  0
  7 10  1  0  0  0  0
 10 11  1  0  0  0  0
 10 12  1  0  0  0  0
 10 13  1  0  0  0  0
 13 14  1  0  0  0  0
 13 15  1  0  0  0  0
 15 16  1  0  0  0  0
 15 17  1  0  0  0  0
  1 18  1  0  0  0  0
 15 18  1  0  0  0  0
 18 19  1  0  0  0  0
 18 20  1  0  0  0  0
 13 21  1  0  0  0  0
 21 22  1  0  0  0  0
M  END
> <VConfSearch Rank>
402

> <Conf_Id>
144

> <Delta U+W>
-3.291

> <U+W>
3.132

> <U>
5.411

> <W>
-2.279

> <W(PB)>
-4.300

> <W(SA)>
2.021

> <Valence>
11.909

> <Coulomb>
-8.733

> <VdW>
2.236

> <VdW6>
-8.936

> <VdW12>
11.172

> <Bond>
0.223

> <Angle>
2.457

> <Pdih>
9.228

> <Idih>
0.000

> <Tether>
0.000

$$$$
VeraChem MOL file


 22 22  0  0  0  0  0  0  0  0999 V2000     
   19.2455   20.0335   21.1400 C   0  0  0  0  0  0  0  0  0  0  0  0
   18.9531   20.5879   20.2378 H   0  0  0  0  0  0  0  0  0  0  0  0
   18.7686   19.0473   21.0587 H   0  0  0  0  0  0  0  0  0  0  0  0
   18.7108   20.8045   22.3695 C   0  0  0  0  0  0  0  0  0  0  0  0
   19.4062   21.6164   22.6228 H   0  0  0  0  0  0  0  0  0  0  0  0
   17.7692   21.3002   22.0962 H   0  0  0  0  0  0  0  0  0  0  0  0
   18.4461   19.9372   23.6240 C   0  0  0  0  0  0  0  0  0  0  0  0
   17.4525   19.4767   23.5369 H   0  0  0  0  0  0  0  0  0  0  0  0
   18.3904   20.6038   24.4955 H   0  0  0  0  0  0  0  0  0  0  0  0
   19.4739   18.8153   23.9124 C   0  0  0  0  0  0  0  0  0  0  0  0
   19.3603   18.5180   24.9637 H   0  0  0  0  0  0  0  0  0  0  0  0
   19.2132   17.9272   23.3222 H   0  0  0  0  0  0  0  0  0  0  0  0
   20.9467   19.1952   23.6403 C   0  0  0  0  0  0  0  0  0  0  0  0
   21.1028   20.2573   23.8773 H   0  0  0  0  0  0  0  0  0  0  0  0
   21.3685   18.9227   22.1785 C   0  0  0  0  0  0  0  0  0  0  0  0
   22.4640   18.9682   22.1144 H   0  0  0  0  0  0  0  0  0  0  0  0
   21.0909   17.8972   21.9023 H   0  0  0  0  0  0  0  0  0  0  0  0
   20.7877   19.9044   21.1333 C   0  0  0  0  0  0  0  0  0  0  0  0
   21.2375   20.8965   21.2763 H   0  0  0  0  0  0  0  0  0  0  0  0
   21.1070   19.5722   20.1361 H   0  0  0  0  0  0  0  0  0  0  0  0
   21.7746   18.4093   24.4871 O   0  0  0  0  0  0  0  0  0  0  0  0
   21.6067   17.4746   24.2480 H   0  0  0  0  0  0  0  0  0  0  0  0
  1  2  1  0  0  0  0
  1  3  1  0  0  0  0
  1  4  1  0  0  0  0
  4  5  1  0  0  0  0
  4  6  1  0  0  0  0
  4  7  1  0  0  0  0
  7  8  1  0  0  0  0
  7  9  1  0  0  0  0
  7 10  1  0  0  0  0
 10 11  1  0  0  0  0
 10 12  1  0  0  0  0
 10 13  1  0  0  0  0
 13 14  1  0  0  0  0
 13 15  1  0  0  0  0
 15 16  1  0  0  0  0
 15 17  1  0  0  0  0
  1 18  1  0  0  0  0
 15 18  1  0  0  0  0
 18 19  1  0  0  0  0
 18 20  1  0  0  0  0
 13 21  1  0  0  0  0
 21 22  1  0  0  0  0
M  END
> <VConfSearch Rank>
403

> <Conf_Id>
76

> <Delta U+W>
-3.175

> <U+W>
3.248

> <U>
5.336

> <W>
-2.088

> <W(PB)>
-4.098

> <W(SA)>
2.010

> <Valence>
12.390

> <Coulomb>
-9.270

> <VdW>
2.216

> <VdW6>
-8.967

> <VdW12>
11.183

> <Bond>
0.218

> <Angle>
2.426

> <Pdih>
9.745

> <Idih>
0.000

> <Tether>
0.000

$$$$
VeraChem MOL file


 22 22  0  0  0  0  0  0  0  0999 V2000     
   20.3451   17.9239   21.8093 C   0  0  0  0  0  0  0  0  0  0  0  0
   20.3171   17.7385   20.7269 H   0  0  0  0  0  0  0  0  0  0  0  0
   20.6495   16.9726   22.2668 H   0  0  0  0  0  0  0  0  0  0  0  0
   18.9115   18.2698   22.2783 C   0  0  0  0  0  0  0  0  0  0  0  0
   18.4050   18.8610   21.5034 H   0  0  0  0  0  0  0  0  0  0  0  0
   18.3429   17.3327   22.3511 H   0  0  0  0  0  0  0  0  0  0  0  0
   18.8275   19.0147   23.6309 C   0  0  0  0  0  0  0  0  0  0  0  0
   19.5868   18.6433   24.3326 H   0  0  0  0  0  0  0  0  0  0  0  0
   17.8544   18.7863   24.0861 H   0  0  0  0  0  0  0  0  0  0  0  0
   18.9263   20.5536   23.4756 C   0  0  0  0  0  0  0  0  0  0  0  0
   18.2065   20.8866   22.7170 H   0  0  0  0  0  0  0  0  0  0  0  0
   18.6028   21.0218   24.4145 H   0  0  0  0  0  0  0  0  0  0  0  0
   20.3211   21.1159   23.1189 C   0  0  0  0  0  0  0  0  0  0  0  0
   20.1805   22.1775   22.8691 H   0  0  0  0  0  0  0  0  0  0  0  0
   21.0093   20.4486   21.9016 C   0  0  0  0  0  0  0  0  0  0  0  0
   20.3614   20.5267   21.0190 H   0  0  0  0  0  0  0  0  0  0  0  0
   21.9049   21.0370   21.6641 H   0  0  0  0  0  0  0  0  0  0  0  0
   21.4398   18.9740   22.1145 C   0  0  0  0  0  0  0  0  0  0  0  0
   22.3014   18.7604   21.4678 H   0  0  0  0  0  0  0  0  0  0  0  0
   21.8043   18.8323   23.1404 H   0  0  0  0  0  0  0  0  0  0  0  0
   21.1659   21.0375   24.2626 O   0  0  0  0  0  0  0  0  0  0  0  0
   22.0483   21.3533   23.9798 H   0  0  0  0  0  0  0  0  0  0  0  0
  1  2  1  0  0  0  0
  1  3  1  0  0  0  0
  1  4  1  0  0  0  0
  4  5  1  0  0  0  0
  4  6  1  0  0  0  0
  4  7  1  0  0  0  0
  7  8  1  0  0  0  0
  7  9  1  0  0  0  0
  7 10  1  0  0  0  0
 10 11  1  0  0  0  0
 10 12  1  0  0  0  0
 10 13  1  0  0  0  0
 13 14  1  0  0  0  0
 13 15  1  0  0  0  0
 15 16  1  0  0  0  0
 15 17  1  0  0  0  0
  1 18  1  0  0  0  0
 15 18  1  0  0  0  0
 18 19  1  0  0  0  0
 18 20  1  0  0  0  0
 13 21  1  0  0  0  0
 21 22  1  0  0  0  0
M  END
> <VConfSearch Rank>
404

> <Conf_Id>
95

> <Delta U+W>
-2.289

> <U+W>
4.134

> <U>
6.373

> <W>
-2.240

> <W(PB)>
-4.254

> <W(SA)>
2.015

> <Valence>
12.093

> <Coulomb>
-8.058

> <VdW>
2.339

> <VdW6>
-9.683

> <VdW12>
12.022

> <Bond>
0.268

> <Angle>
3.005

> <Pdih>
8.820

> <Idih>
0.000

> <Tether>
0.000

$$$$
VeraChem MOL file


 22 22  0  0  0  0  0  0  0  0999 V2000     
   20.2069   21.1731   21.5926 C   0  0  0  0  0  0  0  0  0  0  0  0
   19.7103   21.3687   20.6325 H   0  0  0  0  0  0  0  0  0  0  0  0
   20.7970   22.0735   21.8117 H   0  0  0  0  0  0  0  0  0  0  0  0
   21.1698   19.9766   21.4045 C   0  0  0  0  0  0  0  0  0  0  0  0
   20.7227   19.2528   20.7097 H   0  0  0  0  0  0  0  0  0  0  0  0
   22.0747   20.3450   20.9022 H   0  0  0  0  0  0  0  0  0  0  0  0
   21.5789   19.2532   22.7087 C   0  0  0  0  0  0  0  0  0  0  0  0
   21.7119   19.9698   23.5307 H   0  0  0  0  0  0  0  0  0  0  0  0
   22.5612   18.7892   22.5468 H   0  0  0  0  0  0  0  0  0  0  0  0
   20.5865   18.1315   23.1063 C   0  0  0  0  0  0  0  0  0  0  0  0
   20.4101   17.4839   22.2378 H   0  0  0  0  0  0  0  0  0  0  0  0
   21.0655   17.4885   23.8561 H   0  0  0  0  0  0  0  0  0  0  0  0
   19.2208   18.5948   23.6632 C   0  0  0  0  0  0  0  0  0  0  0  0
   18.5840   17.7007   23.7269 H   0  0  0  0  0  0  0  0  0  0  0  0
   18.4685   19.6266   22.7858 C   0  0  0  0  0  0  0  0  0  0  0  0
   18.3113   19.2185   21.7792 H   0  0  0  0  0  0  0  0  0  0  0  0
   17.4675   19.7515   23.2184 H   0  0  0  0  0  0  0  0  0  0  0  0
   19.1327   21.0253   22.6965 C   0  0  0  0  0  0  0  0  0  0  0  0
   18.3520   21.7750   22.5101 H   0  0  0  0  0  0  0  0  0  0  0  0
   19.5670   21.2949   23.6683 H   0  0  0  0  0  0  0  0  0  0  0  0
   19.3975   19.1084   24.9799 O   0  0  0  0  0  0  0  0  0  0  0  0
   19.8896   18.4285   25.4836 H   0  0  0  0  0  0  0  0  0  0  0  0
  1  2  1  0  0  0  0
  1  3  1  0  0  0  0
  1  4  1  0  0  0  0
  4  5  1  0  0  0  0
  4  6  1  0  0  0  0
  4  7  1  0  0  0  0
  7  8  1  0  0  0  0
  7  9  1  0  0  0  0
  7 10  1  0  0  0  0
 10 11  1  0  0  0  0
 10 12  1  0  0  0  0
 10 13  1  0  0  0  0
 13 14  1  0  0  0  0
 13 15  1  0  0  0  0
 15 16  1  0  0  0  0
 15 17  1  0  0  0  0
  1 18  1  0  0  0  0
 15 18  1  0  0  0  0
 18 19  1  0  0  0  0
 18 20  1  0  0  0  0
 13 21  1  0  0  0  0
 21 22  1  0  0  0  0
M  END
> <VConfSearch Rank>
405

> <Conf_Id>
41

> <Delta U+W>
-2.114

> <U+W>
4.310

> <U>
6.598

> <W>
-2.289

> <W(PB)>
-4.294

> <W(SA)>
2.005

> <Valence>
12.082

> <Coulomb>
-7.801

> <VdW>
2.317

> <VdW6>
-9.658

> <VdW12>
11.975

> <Bond>
0.267

> <Angle>
3.051

> <Pdih>
8.764

> <Idih>
0.000

> <Tether>
0.000

$$$$
VeraChem MOL file


 22 22  0  0  0  0  0  0  0  0999 V2000     
   18.4665   19.1874   22.8937 C   0  0  0  0  0  0  0  0  0  0  0  0
   17.4605   18.7472   22.8667 H   0  0  0  0  0  0  0  0  0  0  0  0
   18.4748   19.8848   23.7427 H   0  0  0  0  0  0  0  0  0  0  0  0
   18.6893   19.9424   21.5642 C   0  0  0  0  0  0  0  0  0  0  0  0
   18.7398   19.2220   20.7365 H   0  0  0  0  0  0  0  0  0  0  0  0
   17.8094   20.5689   21.3648 H   0  0  0  0  0  0  0  0  0  0  0  0
   19.9418   20.8456   21.5383 C   0  0  0  0  0  0  0  0  0  0  0  0
   19.7958   21.6925   22.2219 H   0  0  0  0  0  0  0  0  0  0  0  0
   20.0198   21.2871   20.5358 H   0  0  0  0  0  0  0  0  0  0  0  0
   21.2801   20.1272   21.8610 C   0  0  0  0  0  0  0  0  0  0  0  0
   21.3905   19.2356   21.2309 H   0  0  0  0  0  0  0  0  0  0  0  0
   22.0968   20.7996   21.5686 H   0  0  0  0  0  0  0  0  0  0  0  0
   21.5079   19.7522   23.3481 C   0  0  0  0  0  0  0  0  0  0  0  0
   22.5845   19.5600   23.4635 H   0  0  0  0  0  0  0  0  0  0  0  0
   20.7861   18.4712   23.8412 C   0  0  0  0  0  0  0  0  0  0  0  0
   21.4931   17.6346   23.7679 H   0  0  0  0  0  0  0  0  0  0  0  0
   20.5699   18.5724   24.9129 H   0  0  0  0  0  0  0  0  0  0  0  0
   19.4870   18.0484   23.1116 C   0  0  0  0  0  0  0  0  0  0  0  0
   19.7348   17.5821   22.1485 H   0  0  0  0  0  0  0  0  0  0  0  0
   19.0096   17.2583   23.7069 H   0  0  0  0  0  0  0  0  0  0  0  0
   21.1726   20.8479   24.1954 O   0  0  0  0  0  0  0  0  0  0  0  0
   21.3733   20.5685   25.1117 H   0  0  0  0  0  0  0  0  0  0  0  0
  1  2  1  0  0  0  0
  1  3  1  0  0  0  0
  1  4  1  0  0  0  0
  4  5  1  0  0  0  0
  4  6  1  0  0  0  0
  4  7  1  0  0  0  0
  7  8  1  0  0  0  0
  7  9  1  0  0  0  0
  7 10  1  0  0  0  0
 10 11  1  0  0  0  0
 10 12  1  0  0  0  0
 10 13  1  0  0  0  0
 13 14  1  0  0  0  0
 13 15  1  0  0  0  0
 15 16  1  0  0  0  0
 15 17  1  0  0  0  0
  1 18  1  0  0  0  0
 15 18  1  0  0  0  0
 18 19  1  0  0  0  0
 18 20  1  0  0  0  0
 13 21  1  0  0  0  0
 21 22  1  0  0  0  0
M  END
> <VConfSearch Rank>
406

> <Conf_Id>
104

> <Delta U+W>
-1.172

> <U+W>
5.252

> <U>
7.482

> <W>
-2.230

> <W(PB)>
-4.220

> <W(SA)>
1.990

> <Valence>
12.309

> <Coulomb>
-7.084

> <VdW>
2.258

> <VdW6>
-9.770

> <VdW12>
12.028

> <Bond>
0.284

> <Angle>
3.491

> <Pdih>
8.535

> <Idih>
0.000

> <Tether>
0.000

$$$$
VeraChem MOL file


 22 22  0  0  0  0  0  0  0  0999 V2000     
   21.2261   18.7851   21.8258 C   0  0  0  0  0  0  0  0  0  0  0  0
   21.2433   17.9414   22.5289 H   0  0  0  0  0  0  0  0  0  0  0  0
   21.9862   18.5600   21.0652 H   0  0  0  0  0  0  0  0  0  0  0  0
   21.6363   20.0988   22.5297 C   0  0  0  0  0  0  0  0  0  0  0  0
   22.7313   20.1227   22.6164 H   0  0  0  0  0  0  0  0  0  0  0  0
   21.3839   20.9509   21.8849 H   0  0  0  0  0  0  0  0  0  0  0  0
   21.0460   20.3143   23.9463 C   0  0  0  0  0  0  0  0  0  0  0  0
   21.0136   21.3937   24.1491 H   0  0  0  0  0  0  0  0  0  0  0  0
   21.7491   19.9008   24.6822 H   0  0  0  0  0  0  0  0  0  0  0  0
   19.6499   19.6994   24.2365 C   0  0  0  0  0  0  0  0  0  0  0  0
   19.7648   18.6257   24.4341 H   0  0  0  0  0  0  0  0  0  0  0  0
   19.2803   20.1271   25.1775 H   0  0  0  0  0  0  0  0  0  0  0  0
   18.5577   19.8918   23.1595 C   0  0  0  0  0  0  0  0  0  0  0  0
   17.5841   19.7712   23.6560 H   0  0  0  0  0  0  0  0  0  0  0  0
   18.6236   18.8276   22.0409 C   0  0  0  0  0  0  0  0  0  0  0  0
   18.5665   17.8318   22.4993 H   0  0  0  0  0  0  0  0  0  0  0  0
   17.7194   18.9218   21.4254 H   0  0  0  0  0  0  0  0  0  0  0  0
   19.8588   18.8806   21.1080 C   0  0  0  0  0  0  0  0  0  0  0  0
   19.7817   18.0441   20.4002 H   0  0  0  0  0  0  0  0  0  0  0  0
   19.8230   19.7907   20.4940 H   0  0  0  0  0  0  0  0  0  0  0  0
   18.6324   21.1943   22.6008 O   0  0  0  0  0  0  0  0  0  0  0  0
   19.5456   21.2540   22.2562 H   0  0  0  0  0  0  0  0  0  0  0  0
  1  2  1  0  0  0  0
  1  3  1  0  0  0  0
  1  4  1  0  0  0  0
  4  5  1  0  0  0  0
  4  6  1  0  0  0  0
  4  7  1  0  0  0  0
  7  8  1  0  0  0  0
  7  9  1  0  0  0  0
  7 10  1  0  0  0  0
 10 11  1  0  0  0  0
 10 12  1  0  0  0  0
 10 13  1  0  0  0  0
 13 14  1  0  0  0  0
 13 15  1  0  0  0  0
 15 16  1  0  0  0  0
 15 17  1  0  0  0  0
  1 18  1  0  0  0  0
 15 18  1  0  0  0  0
 18 19  1  0  0  0  0
 18 20  1  0  0  0  0
 13 21  1  0  0  0  0
 21 22  1  0  0  0  0
M  END
> <VConfSearch Rank>
407

> <Conf_Id>
99

> <Delta U+W>
-3.852

> <U+W>
2.572

> <U>
3.922

> <W>
-1.350

> <W(PB)>
-3.345

> <W(SA)>
1.995

> <Valence>
12.571

> <Coulomb>
-10.581

> <VdW>
1.932

> <VdW6>
-10.483

> <VdW12>
12.415

> <Bond>
0.268

> <Angle>
3.728

> <Pdih>
8.575

> <Idih>
0.000

> <Tether>
0.000

$$$$
VeraChem MOL file


 22 22  0  0  0  0  0  0  0  0999 V2000     
   19.8999   18.3214   23.7416 C   0  0  0  0  0  0  0  0  0  0  0  0
   19.2982   17.5415   24.2285 H   0  0  0  0  0  0  0  0  0  0  0  0
   20.9105   18.1975   24.1532 H   0  0  0  0  0  0  0  0  0  0  0  0
   19.3170   19.7037   24.1579 C   0  0  0  0  0  0  0  0  0  0  0  0
   18.4630   19.5221   24.8250 H   0  0  0  0  0  0  0  0  0  0  0  0
   20.0442   20.2518   24.7717 H   0  0  0  0  0  0  0  0  0  0  0  0
   18.8271   20.6105   23.0001 C   0  0  0  0  0  0  0  0  0  0  0  0
   18.2703   21.4532   23.4319 H   0  0  0  0  0  0  0  0  0  0  0  0
   18.0868   20.0719   22.3956 H   0  0  0  0  0  0  0  0  0  0  0  0
   19.9329   21.1944   22.0775 C   0  0  0  0  0  0  0  0  0  0  0  0
   19.4723   21.4640   21.1184 H   0  0  0  0  0  0  0  0  0  0  0  0
   20.2797   22.1427   22.5093 H   0  0  0  0  0  0  0  0  0  0  0  0
   21.1834   20.3262   21.7938 C   0  0  0  0  0  0  0  0  0  0  0  0
   21.7218   20.8036   20.9626 H   0  0  0  0  0  0  0  0  0  0  0  0
   20.9182   18.8592   21.3744 C   0  0  0  0  0  0  0  0  0  0  0  0
   20.5743   18.8527   20.3321 H   0  0  0  0  0  0  0  0  0  0  0  0
   21.8849   18.3382   21.3642 H   0  0  0  0  0  0  0  0  0  0  0  0
   19.9188   18.0226   22.2207 C   0  0  0  0  0  0  0  0  0  0  0  0
   18.9070   18.1280   21.8100 H   0  0  0  0  0  0  0  0  0  0  0  0
   20.1650   16.9614   22.0792 H   0  0  0  0  0  0  0  0  0  0  0  0
   22.0457   20.3508   22.9203 O   0  0  0  0  0  0  0  0  0  0  0  0
   21.5247   19.9184   23.6263 H   0  0  0  0  0  0  0  0  0  0  0  0
  1  2  1  0  0  0  0
  1  3  1  0  0  0  0
  1  4  1  0  0  0  0
  4  5  1  0  0  0  0
  4  6  1  0  0  0  0
  4  7  1  0  0  0  0
  7  8  1  0  0  0  0
  7  9  1  0  0  0  0
  7 10  1  0  0  0  0
 10 11  1  0  0  0  0
 10 12  1  0  0  0  0
 10 13  1  0  0  0  0
 13 14  1  0  0  0  0
 13 15  1  0  0  0  0
 15 16  1  0  0  0  0
 15 17  1  0  0  0  0
  1 18  1  0  0  0  0
 15 18  1  0  0  0  0
 18 19  1  0  0  0  0
 18 20  1  0  0  0  0
 13 21  1  0  0  0  0
 21 22  1  0  0  0  0
M  END
> <VConfSearch Rank>
408

> <Conf_Id>
98

> <Delta U+W>
0.930

> <U+W>
7.353

> <U>
8.455

> <W>
-1.102

> <W(PB)>
-3.101

> <W(SA)>
2.000

> <Valence>
15.601

> <Coulomb>
-10.573

> <VdW>
3.427

> <VdW6>
-11.360

> <VdW12>
14.787

> <Bond>
0.471

> <Angle>
5.445

> <Pdih>
9.685

> <Idih>
0.000

> <Tether>
0.000

$$$$
VeraChem MOL file


 22 22  0  0  0  0  0  0  0  0999 V2000     
   21.5826   20.2248   22.8025 C   0  0  0  0  0  0  0  0  0  0  0  0
   21.9792   19.2810   22.4068 H   0  0  0  0  0  0  0  0  0  0  0  0
   22.4606   20.8732   22.9270 H   0  0  0  0  0  0  0  0  0  0  0  0
   20.9465   19.9831   24.1950 C   0  0  0  0  0  0  0  0  0  0  0  0
   21.7295   19.5774   24.8503 H   0  0  0  0  0  0  0  0  0  0  0  0
   20.6562   20.9451   24.6388 H   0  0  0  0  0  0  0  0  0  0  0  0
   19.7320   19.0146   24.2363 C   0  0  0  0  0  0  0  0  0  0  0  0
   18.7989   19.5849   24.3322 H   0  0  0  0  0  0  0  0  0  0  0  0
   19.7973   18.4224   25.1592 H   0  0  0  0  0  0  0  0  0  0  0  0
   19.6237   18.0447   23.0300 C   0  0  0  0  0  0  0  0  0  0  0  0
   20.5805   17.5239   22.8999 H   0  0  0  0  0  0  0  0  0  0  0  0
   18.9054   17.2543   23.2863 H   0  0  0  0  0  0  0  0  0  0  0  0
   19.2033   18.6878   21.6758 C   0  0  0  0  0  0  0  0  0  0  0  0
   19.8734   18.3009   20.8946 H   0  0  0  0  0  0  0  0  0  0  0  0
   19.2404   20.2356   21.6210 C   0  0  0  0  0  0  0  0  0  0  0  0
   18.8101   20.5680   20.6674 H   0  0  0  0  0  0  0  0  0  0  0  0
   18.5783   20.6482   22.3917 H   0  0  0  0  0  0  0  0  0  0  0  0
   20.6467   20.8714   21.7543 C   0  0  0  0  0  0  0  0  0  0  0  0
   21.1486   20.8320   20.7779 H   0  0  0  0  0  0  0  0  0  0  0  0
   20.5260   21.9379   21.9881 H   0  0  0  0  0  0  0  0  0  0  0  0
   17.8720   18.2824   21.3785 O   0  0  0  0  0  0  0  0  0  0  0  0
   17.6540   18.6523   20.4977 H   0  0  0  0  0  0  0  0  0  0  0  0
  1  2  1  0  0  0  0
  1  3  1  0  0  0  0
  1  4  1  0  0  0  0
  4  5  1  0  0  0  0
  4  6  1  0  0  0  0
  4  7  1  0  0  0  0
  7  8  1  0  0  0  0
  7  9  1  0  0  0  0
  7 10  1  0  0  0  0
 10 11  1  0  0  0  0
 10 12  1  0  0  0  0
 10 13  1  0  0  0  0
 13 14  1  0  0  0  0
 13 15  1  0  0  0  0
 15 16  1  0  0  0  0
 15 17  1  0  0  0  0
  1 18  1  0  0  0  0
 15 18  1  0  0  0  0
 18 19  1  0  0  0  0
 18 20  1  0  0  0  0
 13 21  1  0  0  0  0
 21 22  1  0  0  0  0
M  END
> <VConfSearch Rank>
409

> <Conf_Id>
141

> <Delta U+W>
0.000

> <U+W>
6.423

> <U>
8.781

> <W>
-2.358

> <W(PB)>
-4.373

> <W(SA)>
2.015

> <Valence>
13.328

> <Coulomb>
-8.387

> <VdW>
3.840

> <VdW6>
-9.744

> <VdW12>
13.584

> <Bond>
0.436

> <Angle>
3.478

> <Pdih>
9.415

> <Idih>
0.000

> <Tether>
0.000

$$$$
VeraChem MOL file


 22 22  0  0  0  0  0  0  0  0999 V2000     
   20.8299   20.9103   21.8495 C   0  0  0  0  0  0  0  0  0  0  0  0
   20.3370   21.6210   22.5267 H   0  0  0  0  0  0  0  0  0  0  0  0
   21.5071   21.5072   21.2234 H   0  0  0  0  0  0  0  0  0  0  0  0
   19.8002   20.2326   20.9135 C   0  0  0  0  0  0  0  0  0  0  0  0
   19.4124   20.9869   20.2153 H   0  0  0  0  0  0  0  0  0  0  0  0
   20.3105   19.4846   20.2914 H   0  0  0  0  0  0  0  0  0  0  0  0
   18.5976   19.5710   21.6252 C   0  0  0  0  0  0  0  0  0  0  0  0
   17.9820   19.0715   20.8647 H   0  0  0  0  0  0  0  0  0  0  0  0
   17.9589   20.3503   22.0630 H   0  0  0  0  0  0  0  0  0  0  0  0
   18.9708   18.5373   22.7158 C   0  0  0  0  0  0  0  0  0  0  0  0
   18.0590   17.9825   22.9732 H   0  0  0  0  0  0  0  0  0  0  0  0
   19.6781   17.7964   22.3213 H   0  0  0  0  0  0  0  0  0  0  0  0
   19.5347   19.1966   23.9945 C   0  0  0  0  0  0  0  0  0  0  0  0
   19.0445   20.1722   24.1236 H   0  0  0  0  0  0  0  0  0  0  0  0
   21.0641   19.4203   23.9805 C   0  0  0  0  0  0  0  0  0  0  0  0
   21.2979   20.1595   24.7575 H   0  0  0  0  0  0  0  0  0  0  0  0
   21.5696   18.4940   24.2847 H   0  0  0  0  0  0  0  0  0  0  0  0
   21.6840   19.8930   22.6417 C   0  0  0  0  0  0  0  0  0  0  0  0
   22.6622   20.3423   22.8605 H   0  0  0  0  0  0  0  0  0  0  0  0
   21.8961   19.0218   22.0071 H   0  0  0  0  0  0  0  0  0  0  0  0
   19.2198   18.3740   25.1114 O   0  0  0  0  0  0  0  0  0  0  0  0
   18.2426   18.3073   25.1463 H   0  0  0  0  0  0  0  0  0  0  0  0
  1  2  1  0  0  0  0
  1  3  1  0  0  0  0
  1  4  1  0  0  0  0
  4  5  1  0  0  0  0
  4  6  1  0  0  0  0
  4  7  1  0  0  0  0
  7  8  1  0  0  0  0
  7  9  1  0  0  0  0
  7 10  1  0  0  0  0
 10 11  1  0  0  0  0
 10 12  1  0  0  0  0
 10 13  1  0  0  0  0
 13 14  1  0  0  0  0
 13 15  1  0  0  0  0
 15 16  1  0  0  0  0
 15 17  1  0  0  0  0
  1 18  1  0  0  0  0
 15 18  1  0  0  0  0
 18 19  1  0  0  0  0
 18 20  1  0  0  0  0
 13 21  1  0  0  0  0
 21 22  1  0  0  0  0
M  END
> <VConfSearch Rank>
410

> <Conf_Id>
144

> <Delta U+W>
-3.291

> <U+W>
3.132

> <U>
5.411

> <W>
-2.279

> <W(PB)>
-4.300

> <W(SA)>
2.021

> <Valence>
11.909

> <Coulomb>
-8.733

> <VdW>
2.236

> <VdW6>
-8.936

> <VdW12>
11.172

> <Bond>
0.223

> <Angle>
2.457

> <Pdih>
9.228

> <Idih>
0.000

> <Tether>
0.000

$$$$
VeraChem MOL file


 22 22  0  0  0  0  0  0  0  0999 V2000     
   19.1775   21.0817   22.3618 C   0  0  0  0  0  0  0  0  0  0  0  0
   18.9726   22.1483   22.1967 H   0  0  0  0  0  0  0  0  0  0  0  0
   18.2060   20.5726   22.3002 H   0  0  0  0  0  0  0  0  0  0  0  0
   19.7929   20.9256   23.7722 C   0  0  0  0  0  0  0  0  0  0  0  0
   20.8689   21.1424   23.7275 H   0  0  0  0  0  0  0  0  0  0  0  0
   19.3668   21.6931   24.4327 H   0  0  0  0  0  0  0  0  0  0  0  0
   19.5682   19.5461   24.4374 C   0  0  0  0  0  0  0  0  0  0  0  0
   18.5798   19.5373   24.9168 H   0  0  0  0  0  0  0  0  0  0  0  0
   20.2961   19.4368   25.2529 H   0  0  0  0  0  0  0  0  0  0  0  0
   19.6639   18.3116   23.5074 C   0  0  0  0  0  0  0  0  0  0  0  0
   19.8182   17.4264   24.1392 H   0  0  0  0  0  0  0  0  0  0  0  0
   18.6969   18.1582   23.0112 H   0  0  0  0  0  0  0  0  0  0  0  0
   20.7795   18.3844   22.4407 C   0  0  0  0  0  0  0  0  0  0  0  0
   21.6460   18.9229   22.8502 H   0  0  0  0  0  0  0  0  0  0  0  0
   20.3100   19.0717   21.1383 C   0  0  0  0  0  0  0  0  0  0  0  0
   21.0454   18.8682   20.3485 H   0  0  0  0  0  0  0  0  0  0  0  0
   19.3697   18.6159   20.8020 H   0  0  0  0  0  0  0  0  0  0  0  0
   20.1245   20.6047   21.2346 C   0  0  0  0  0  0  0  0  0  0  0  0
   21.1059   21.0832   21.3558 H   0  0  0  0  0  0  0  0  0  0  0  0
   19.7332   20.9640   20.2730 H   0  0  0  0  0  0  0  0  0  0  0  0
   21.1746   17.0582   22.1162 O   0  0  0  0  0  0  0  0  0  0  0  0
   20.3795   16.6125   21.7581 H   0  0  0  0  0  0  0  0  0  0  0  0
  1  2  1  0  0  0  0
  1  3  1  0  0  0  0
  1  4  1  0  0  0  0
  4  5  1  0  0  0  0
  4  6  1  0  0  0  0
  4  7  1  0  0  0  0
  7  8  1  0  0  0  0
  7  9  1  0  0  0  0
  7 10  1  0  0  0  0
 10 11  1  0  0  0  0
 10 12  1  0  0  0  0
 10 13  1  0  0  0  0
 13 14  1  0  0  0  0
 13 15  1  0  0  0  0
 15 16  1  0  0  0  0
 15 17  1  0  0  0  0
  1 18  1  0  0  0  0
 15 18  1  0  0  0  0
 18 19  1  0  0  0  0
 18 20  1  0  0  0  0
 13 21  1  0  0  0  0
 21 22  1  0  0  0  0
M  END
> <VConfSearch Rank>
411

> <Conf_Id>
76

> <Delta U+W>
-3.175

> <U+W>
3.248

> <U>
5.336

> <W>
-2.088

> <W(PB)>
-4.098

> <W(SA)>
2.010

> <Valence>
12.390

> <Coulomb>
-9.270

> <VdW>
2.216

> <VdW6>
-8.967

> <VdW12>
11.183

> <Bond>
0.218

> <Angle>
2.426

> <Pdih>
9.745

> <Idih>
0.000

> <Tether>
0.000

$$$$
VeraChem MOL file


 22 22  0  0  0  0  0  0  0  0999 V2000     
   20.0459   18.2085   23.9903 C   0  0  0  0  0  0  0  0  0  0  0  0
   19.3325   17.3773   24.0734 H   0  0  0  0  0  0  0  0  0  0  0  0
   20.7923   18.0406   24.7786 H   0  0  0  0  0  0  0  0  0  0  0  0
   19.2905   19.5261   24.2873 C   0  0  0  0  0  0  0  0  0  0  0  0
   18.2725   19.4649   23.8796 H   0  0  0  0  0  0  0  0  0  0  0  0
   19.1664   19.6081   25.3758 H   0  0  0  0  0  0  0  0  0  0  0  0
   19.9789   20.8075   23.7623 C   0  0  0  0  0  0  0  0  0  0  0  0
   21.0706   20.7370   23.8621 H   0  0  0  0  0  0  0  0  0  0  0  0
   19.6683   21.6468   24.3991 H   0  0  0  0  0  0  0  0  0  0  0  0
   19.5796   21.1487   22.3042 C   0  0  0  0  0  0  0  0  0  0  0  0
   18.4855   21.1414   22.2186 H   0  0  0  0  0  0  0  0  0  0  0  0
   19.8851   22.1812   22.0898 H   0  0  0  0  0  0  0  0  0  0  0  0
   20.1710   20.2389   21.2034 C   0  0  0  0  0  0  0  0  0  0  0  0
   19.6537   20.4961   20.2678 H   0  0  0  0  0  0  0  0  0  0  0  0
   19.9753   18.7186   21.4292 C   0  0  0  0  0  0  0  0  0  0  0  0
   18.9065   18.4930   21.5366 H   0  0  0  0  0  0  0  0  0  0  0  0
   20.2959   18.2041   20.5142 H   0  0  0  0  0  0  0  0  0  0  0  0
   20.7656   18.1226   22.6232 C   0  0  0  0  0  0  0  0  0  0  0  0
   20.9723   17.0638   22.4171 H   0  0  0  0  0  0  0  0  0  0  0  0
   21.7506   18.6015   22.6996 H   0  0  0  0  0  0  0  0  0  0  0  0
   21.5543   20.5358   21.0415 O   0  0  0  0  0  0  0  0  0  0  0  0
   21.8989   19.9054   20.3765 H   0  0  0  0  0  0  0  0  0  0  0  0
  1  2  1  0  0  0  0
  1  3  1  0  0  0  0
  1  4  1  0  0  0  0
  4  5  1  0  0  0  0
  4  6  1  0  0  0  0
  4  7  1  0  0  0  0
  7  8  1  0  0  0  0
  7  9  1  0  0  0  0
  7 10  1  0  0  0  0
 10 11  1  0  0  0  0
 10 12  1  0  0  0  0
 10 13  1  0  0  0  0
 13 14  1  0  0  0  0
 13 15  1  0  0  0  0
 15 16  1  0  0  0  0
 15 17  1  0  0  0  0
  1 18  1  0  0  0  0
 15 18  1  0  0  0  0
 18 19  1  0  0  0  0
 18 20  1  0  0  0  0
 13 21  1  0  0  0  0
 21 22  1  0  0  0  0
M  END
> <VConfSearch Rank>
412

> <Conf_Id>
95

> <Delta U+W>
-2.289

> <U+W>
4.134

> <U>
6.373

> <W>
-2.240

> <W(PB)>
-4.254

> <W(SA)>
2.015

> <Valence>
12.093

> <Coulomb>
-8.058

> <VdW>
2.339

> <VdW6>
-9.683

> <VdW12>
12.022

> <Bond>
0.268

> <Angle>
3.005

> <Pdih>
8.820

> <Idih>
0.000

> <Tether>
0.000

$$$$
VeraChem MOL file


 22 22  0  0  0  0  0  0  0  0999 V2000     
   21.3225   18.5813   21.7458 C   0  0  0  0  0  0  0  0  0  0  0  0
   21.3438   17.4903   21.6192 H   0  0  0  0  0  0  0  0  0  0  0  0
   22.1743   18.9649   21.1677 H   0  0  0  0  0  0  0  0  0  0  0  0
   21.5493   18.8993   23.2430 C   0  0  0  0  0  0  0  0  0  0  0  0
   21.0584   18.1332   23.8582 H   0  0  0  0  0  0  0  0  0  0  0  0
   22.6232   18.7997   23.4522 H   0  0  0  0  0  0  0  0  0  0  0  0
   21.0780   20.3015   23.6939 C   0  0  0  0  0  0  0  0  0  0  0  0
   21.2727   21.0511   22.9148 H   0  0  0  0  0  0  0  0  0  0  0  0
   21.6809   20.6003   24.5620 H   0  0  0  0  0  0  0  0  0  0  0  0
   19.5892   20.3219   24.1233 C   0  0  0  0  0  0  0  0  0  0  0  0
   19.4102   19.5071   24.8367 H   0  0  0  0  0  0  0  0  0  0  0  0
   19.3982   21.2464   24.6836 H   0  0  0  0  0  0  0  0  0  0  0  0
   18.5493   20.2192   22.9841 C   0  0  0  0  0  0  0  0  0  0  0  0
   17.5695   20.0713   23.4608 H   0  0  0  0  0  0  0  0  0  0  0  0
   18.7609   19.0374   22.0049 C   0  0  0  0  0  0  0  0  0  0  0  0
   18.7637   18.0891   22.5574 H   0  0  0  0  0  0  0  0  0  0  0  0
   17.8822   18.9991   21.3482 H   0  0  0  0  0  0  0  0  0  0  0  0
   20.0253   19.1385   21.1125 C   0  0  0  0  0  0  0  0  0  0  0  0
   19.8428   18.5894   20.1790 H   0  0  0  0  0  0  0  0  0  0  0  0
   20.1851   20.1814   20.8085 H   0  0  0  0  0  0  0  0  0  0  0  0
   18.5122   21.4489   22.2662 O   0  0  0  0  0  0  0  0  0  0  0  0
   18.3946   22.1588   22.9298 H   0  0  0  0  0  0  0  0  0  0  0  0
  1  2  1  0  0  0  0
  1  3  1  0  0  0  0
  1  4  1  0  0  0  0
  4  5  1  0  0  0  0
  4  6  1  0  0  0  0
  4  7  1  0  0  0  0
  7  8  1  0  0  0  0
  7  9  1  0  0  0  0
  7 10  1  0  0  0  0
 10 11  1  0  0  0  0
 10 12  1  0  0  0  0
 10 13  1  0  0  0  0
 13 14  1  0  0  0  0
 13 15  1  0  0  0  0
 15 16  1  0  0  0  0
 15 17  1  0  0  0  0
  1 18  1  0  0  0  0
 15 18  1  0  0  0  0
 18 19  1  0  0  0  0
 18 20  1  0  0  0  0
 13 21  1  0  0  0  0
 21 22  1  0  0  0  0
M  END
> <VConfSearch Rank>
413

> <Conf_Id>
41

> <Delta U+W>
-2.114

> <U+W>
4.310

> <U>
6.598

> <W>
-2.289

> <W(PB)>
-4.294

> <W(SA)>
2.005

> <Valence>
12.082

> <Coulomb>
-7.801

> <VdW>
2.317

> <VdW6>
-9.658

> <VdW12>
11.975

> <Bond>
0.267

> <Angle>
3.051

> <Pdih>
8.764

> <Idih>
0.000

> <Tether>
0.000

$$$$
VeraChem MOL file


 22 22  0  0  0  0  0  0  0  0999 V2000     
   20.1039   19.3466   21.0600 C   0  0  0  0  0  0  0  0  0  0  0  0
   20.1979   18.9794   20.0290 H   0  0  0  0  0  0  0  0  0  0  0  0
   19.4439   20.2239   21.0155 H   0  0  0  0  0  0  0  0  0  0  0  0
   21.5132   19.7474   21.5506 C   0  0  0  0  0  0  0  0  0  0  0  0
   22.1379   18.8491   21.6474 H   0  0  0  0  0  0  0  0  0  0  0  0
   21.9912   20.3647   20.7779 H   0  0  0  0  0  0  0  0  0  0  0  0
   21.5331   20.5346   22.8792 C   0  0  0  0  0  0  0  0  0  0  0  0
   21.0911   21.5275   22.7223 H   0  0  0  0  0  0  0  0  0  0  0  0
   22.5820   20.7189   23.1475 H   0  0  0  0  0  0  0  0  0  0  0  0
   20.8400   19.8277   24.0754 C   0  0  0  0  0  0  0  0  0  0  0  0
   21.2266   18.8065   24.1849 H   0  0  0  0  0  0  0  0  0  0  0  0
   21.1364   20.3563   24.9905 H   0  0  0  0  0  0  0  0  0  0  0  0
   19.2901   19.8031   24.0441 C   0  0  0  0  0  0  0  0  0  0  0  0
   18.9576   19.5739   25.0670 H   0  0  0  0  0  0  0  0  0  0  0  0
   18.6486   18.7262   23.1309 C   0  0  0  0  0  0  0  0  0  0  0  0
   18.4139   17.8518   23.7517 H   0  0  0  0  0  0  0  0  0  0  0  0
   17.6781   19.0934   22.7720 H   0  0  0  0  0  0  0  0  0  0  0  0
   19.4697   18.2280   21.9158 C   0  0  0  0  0  0  0  0  0  0  0  0
   20.2487   17.5307   22.2527 H   0  0  0  0  0  0  0  0  0  0  0  0
   18.7998   17.6351   21.2783 H   0  0  0  0  0  0  0  0  0  0  0  0
   18.7781   21.0884   23.7025 O   0  0  0  0  0  0  0  0  0  0  0  0
   17.8022   21.0225   23.7376 H   0  0  0  0  0  0  0  0  0  0  0  0
  1  2  1  0  0  0  0
  1  3  1  0  0  0  0
  1  4  1  0  0  0  0
  4  5  1  0  0  0  0
  4  6  1  0  0  0  0
  4  7  1  0  0  0  0
  7  8  1  0  0  0  0
  7  9  1  0  0  0  0
  7 10  1  0  0  0  0
 10 11  1  0  0  0  0
 10 12  1  0  0  0  0
 10 13  1  0  0  0  0
 13 14  1  0  0  0  0
 13 15  1  0  0  0  0
 15 16  1  0  0  0  0
 15 17  1  0  0  0  0
  1 18  1  0  0  0  0
 15 18  1  0  0  0  0
 18 19  1  0  0  0  0
 18 20  1  0  0  0  0
 13 21  1  0  0  0  0
 21 22  1  0  0  0  0
M  END
> <VConfSearch Rank>
414

> <Conf_Id>
104

> <Delta U+W>
-1.172

> <U+W>
5.252

> <U>
7.482

> <W>
-2.230

> <W(PB)>
-4.220

> <W(SA)>
1.990

> <Valence>
12.309

> <Coulomb>
-7.084

> <VdW>
2.258

> <VdW6>
-9.770

> <VdW12>
12.028

> <Bond>
0.284

> <Angle>
3.491

> <Pdih>
8.535

> <Idih>
0.000

> <Tether>
0.000

$$$$
VeraChem MOL file


 22 22  0  0  0  0  0  0  0  0999 V2000     
   21.2550   20.4158   21.8937 C   0  0  0  0  0  0  0  0  0  0  0  0
   20.8082   21.3939   22.1177 H   0  0  0  0  0  0  0  0  0  0  0  0
   22.1550   20.6238   21.2990 H   0  0  0  0  0  0  0  0  0  0  0  0
   20.3034   19.5595   21.0273 C   0  0  0  0  0  0  0  0  0  0  0  0
   20.3820   19.8953   19.9840 H   0  0  0  0  0  0  0  0  0  0  0  0
   20.6564   18.5200   21.0182 H   0  0  0  0  0  0  0  0  0  0  0  0
   18.8067   19.6066   21.4265 C   0  0  0  0  0  0  0  0  0  0  0  0
   18.3262   18.6796   21.0843 H   0  0  0  0  0  0  0  0  0  0  0  0
   18.3211   20.4126   20.8596 H   0  0  0  0  0  0  0  0  0  0  0  0
   18.4774   19.8269   22.9280 C   0  0  0  0  0  0  0  0  0  0  0  0
   18.5875   20.8926   23.1668 H   0  0  0  0  0  0  0  0  0  0  0  0
   17.4122   19.6072   23.0770 H   0  0  0  0  0  0  0  0  0  0  0  0
   19.2863   19.0018   23.9550 C   0  0  0  0  0  0  0  0  0  0  0  0
   18.6958   18.9637   24.8817 H   0  0  0  0  0  0  0  0  0  0  0  0
   20.6408   19.6531   24.3149 C   0  0  0  0  0  0  0  0  0  0  0  0
   20.4557   20.6738   24.6740 H   0  0  0  0  0  0  0  0  0  0  0  0
   21.0644   19.1111   25.1705 H   0  0  0  0  0  0  0  0  0  0  0  0
   21.7049   19.7020   23.1906 C   0  0  0  0  0  0  0  0  0  0  0  0
   22.5865   20.2258   23.5845 H   0  0  0  0  0  0  0  0  0  0  0  0
   22.0466   18.6846   22.9567 H   0  0  0  0  0  0  0  0  0  0  0  0
   19.4896   17.6790   23.4828 O   0  0  0  0  0  0  0  0  0  0  0  0
   19.9420   17.7991   22.6242 H   0  0  0  0  0  0  0  0  0  0  0  0
  1  2  1  0  0  0  0
  1  3  1  0  0  0  0
  1  4  1  0  0  0  0
  4  5  1  0  0  0  0
  4  6  1  0  0  0  0
  4  7  1  0  0  0  0
  7  8  1  0  0  0  0
  7  9  1  0  0  0  0
  7 10  1  0  0  0  0
 10 11  1  0  0  0  0
 10 12  1  0  0  0  0
 10 13  1  0  0  0  0
 13 14  1  0  0  0  0
 13 15  1  0  0  0  0
 15 16  1  0  0  0  0
 15 17  1  0  0  0  0
  1 18  1  0  0  0  0
 15 18  1  0  0  0  0
 18 19  1  0  0  0  0
 18 20  1  0  0  0  0
 13 21  1  0  0  0  0
 21 22  1  0  0  0  0
M  END
> <VConfSearch Rank>
415

> <Conf_Id>
99

> <Delta U+W>
-3.852

> <U+W>
2.572

> <U>
3.922

> <W>
-1.350

> <W(PB)>
-3.345

> <W(SA)>
1.995

> <Valence>
12.571

> <Coulomb>
-10.581

> <VdW>
1.932

> <VdW6>
-10.483

> <VdW12>
12.415

> <Bond>
0.268

> <Angle>
3.728

> <Pdih>
8.575

> <Idih>
0.000

> <Tether>
0.000

$$$$
VeraChem MOL file


 22 22  0  0  0  0  0  0  0  0999 V2000     
   19.9539   21.1346   23.2993 C   0  0  0  0  0  0  0  0  0  0  0  0
   19.4496   22.1068   23.3872 H   0  0  0  0  0  0  0  0  0  0  0  0
   20.8150   21.2000   23.9778 H   0  0  0  0  0  0  0  0  0  0  0  0
   20.4404   20.9803   21.8285 C   0  0  0  0  0  0  0  0  0  0  0  0
   20.1468   21.8859   21.2797 H   0  0  0  0  0  0  0  0  0  0  0  0
   21.5379   20.9706   21.7919 H   0  0  0  0  0  0  0  0  0  0  0  0
   19.8846   19.7579   21.0541 C   0  0  0  0  0  0  0  0  0  0  0  0
   20.1436   19.8732   19.9928 H   0  0  0  0  0  0  0  0  0  0  0  0
   18.7878   19.7748   21.0735 H   0  0  0  0  0  0  0  0  0  0  0  0
   20.3961   18.3664   21.5198 C   0  0  0  0  0  0  0  0  0  0  0  0
   19.6716   17.6085   21.1953 H   0  0  0  0  0  0  0  0  0  0  0  0
   21.3207   18.1363   20.9738 H   0  0  0  0  0  0  0  0  0  0  0  0
   20.6807   18.1583   23.0277 C   0  0  0  0  0  0  0  0  0  0  0  0
   20.8066   17.0771   23.1827 H   0  0  0  0  0  0  0  0  0  0  0  0
   19.5746   18.6270   24.0049 C   0  0  0  0  0  0  0  0  0  0  0  0
   18.7531   17.8998   23.9743 H   0  0  0  0  0  0  0  0  0  0  0  0
   19.9825   18.5611   25.0224 H   0  0  0  0  0  0  0  0  0  0  0  0
   18.9739   20.0466   23.8080 C   0  0  0  0  0  0  0  0  0  0  0  0
   18.1038   19.9914   23.1422 H   0  0  0  0  0  0  0  0  0  0  0  0
   18.5630   20.3743   24.7726 H   0  0  0  0  0  0  0  0  0  0  0  0
   21.9113   18.7764   23.3697 O   0  0  0  0  0  0  0  0  0  0  0  0
   21.7483   19.7286   23.2160 H   0  0  0  0  0  0  0  0  0  0  0  0
  1  2  1  0  0  0  0
  1  3  1  0  0  0  0
  1  4  1  0  0  0  0
  4  5  1  0  0  0  0
  4  6  1  0  0  0  0
  4  7  1  0  0  0  0
  7  8  1  0  0  0  0
  7  9  1  0  0  0  0
  7 10  1  0  0  0  0
 10 11  1  0  0  0  0
 10 12  1  0  0  0  0
 10 13  1  0  0  0  0
 13 14  1  0  0  0  0
 13 15  1  0  0  0  0
 15 16  1  0  0  0  0
 15 17  1  0  0  0  0
  1 18  1  0  0  0  0
 15 18  1  0  0  0  0
 18 19  1  0  0  0  0
 18 20  1  0  0  0  0
 13 21  1  0  0  0  0
 21 22  1  0  0  0  0
M  END
> <VConfSearch Rank>
416

> <Conf_Id>
98

> <Delta U+W>
0.930

> <U+W>
7.353

> <U>
8.455

> <W>
-1.102

> <W(PB)>
-3.101

> <W(SA)>
2.000

> <Valence>
15.601

> <Coulomb>
-10.573

> <VdW>
3.427

> <VdW6>
-11.360

> <VdW12>
14.787

> <Bond>
0.471

> <Angle>
5.445

> <Pdih>
9.685

> <Idih>
0.000

> <Tether>
0.000

$$$$
VeraChem MOL file


 22 22  0  0  0  0  0  0  0  0999 V2000     
   18.8685   20.0104   21.4671 C   0  0  0  0  0  0  0  0  0  0  0  0
   19.7056   20.4513   20.9106 H   0  0  0  0  0  0  0  0  0  0  0  0
   17.9890   20.1624   20.8268 H   0  0  0  0  0  0  0  0  0  0  0  0
   18.6541   20.7857   22.7919 C   0  0  0  0  0  0  0  0  0  0  0  0
   18.4485   21.8332   22.5325 H   0  0  0  0  0  0  0  0  0  0  0  0
   17.7462   20.4189   23.2897 H   0  0  0  0  0  0  0  0  0  0  0  0
   19.8354   20.7604   23.8012 C   0  0  0  0  0  0  0  0  0  0  0  0
   19.6167   20.0619   24.6192 H   0  0  0  0  0  0  0  0  0  0  0  0
   19.8972   21.7468   24.2807 H   0  0  0  0  0  0  0  0  0  0  0  0
   21.2183   20.4194   23.1857 C   0  0  0  0  0  0  0  0  0  0  0  0
   21.4033   21.0789   22.3286 H   0  0  0  0  0  0  0  0  0  0  0  0
   21.9953   20.6823   23.9161 H   0  0  0  0  0  0  0  0  0  0  0  0
   21.4206   18.9399   22.7453 C   0  0  0  0  0  0  0  0  0  0  0  0
   21.8765   18.9435   21.7447 H   0  0  0  0  0  0  0  0  0  0  0  0
   20.1404   18.0690   22.6898 C   0  0  0  0  0  0  0  0  0  0  0  0
   20.4268   17.0285   22.4885 H   0  0  0  0  0  0  0  0  0  0  0  0
   19.6652   18.0479   23.6779 H   0  0  0  0  0  0  0  0  0  0  0  0
   19.0974   18.4887   21.6241 C   0  0  0  0  0  0  0  0  0  0  0  0
   19.4043   18.0870   20.6488 H   0  0  0  0  0  0  0  0  0  0  0  0
   18.1413   18.0032   21.8625 H   0  0  0  0  0  0  0  0  0  0  0  0
   22.3203   18.3177   23.6556 O   0  0  0  0  0  0  0  0  0  0  0  0
   22.4744   17.4087   23.3239 H   0  0  0  0  0  0  0  0  0  0  0  0
  1  2  1  0  0  0  0
  1  3  1  0  0  0  0
  1  4  1  0  0  0  0
  4  5  1  0  0  0  0
  4  6  1  0  0  0  0
  4  7  1  0  0  0  0
  7  8  1  0  0  0  0
  7  9  1  0  0  0  0
  7 10  1  0  0  0  0
 10 11  1  0  0  0  0
 10 12  1  0  0  0  0
 10 13  1  0  0  0  0
 13 14  1  0  0  0  0
 13 15  1  0  0  0  0
 15 16  1  0  0  0  0
 15 17  1  0  0  0  0
  1 18  1  0  0  0  0
 15 18  1  0  0  0  0
 18 19  1  0  0  0  0
 18 20  1  0  0  0  0
 13 21  1  0  0  0  0
 21 22  1  0  0  0  0
M  END
> <VConfSearch Rank>
417

> <Conf_Id>
141

> <Delta U+W>
0.000

> <U+W>
6.423

> <U>
8.781

> <W>
-2.358

> <W(PB)>
-4.373

> <W(SA)>
2.015

> <Valence>
13.328

> <Coulomb>
-8.387

> <VdW>
3.840

> <VdW6>
-9.744

> <VdW12>
13.584

> <Bond>
0.436

> <Angle>
3.478

> <Pdih>
9.415

> <Idih>
0.000

> <Tether>
0.000

$$$$
VeraChem MOL file


 22 22  0  0  0  0  0  0  0  0999 V2000     
   19.0641   18.1252   22.5872 C   0  0  0  0  0  0  0  0  0  0  0  0
   18.8109   18.2585   23.6477 H   0  0  0  0  0  0  0  0  0  0  0  0
   18.5294   17.2236   22.2584 H   0  0  0  0  0  0  0  0  0  0  0  0
   20.5791   17.8641   22.4083 C   0  0  0  0  0  0  0  0  0  0  0  0
   20.8162   16.8772   22.8287 H   0  0  0  0  0  0  0  0  0  0  0  0
   20.8129   17.7959   21.3370 H   0  0  0  0  0  0  0  0  0  0  0  0
   21.5104   18.9062   23.0694 C   0  0  0  0  0  0  0  0  0  0  0  0
   22.5476   18.6488   22.8150 H   0  0  0  0  0  0  0  0  0  0  0  0
   21.4392   18.8178   24.1622 H   0  0  0  0  0  0  0  0  0  0  0  0
   21.2491   20.3743   22.6528 C   0  0  0  0  0  0  0  0  0  0  0  0
   22.1020   20.9739   22.9972 H   0  0  0  0  0  0  0  0  0  0  0  0
   21.2308   20.4691   21.5593 H   0  0  0  0  0  0  0  0  0  0  0  0
   19.9524   20.9471   23.2676 C   0  0  0  0  0  0  0  0  0  0  0  0
   19.8064   20.4856   24.2547 H   0  0  0  0  0  0  0  0  0  0  0  0
   18.6799   20.7024   22.4249 C   0  0  0  0  0  0  0  0  0  0  0  0
   17.8136   20.8511   23.0824 H   0  0  0  0  0  0  0  0  0  0  0  0
   18.6041   21.4753   21.6483 H   0  0  0  0  0  0  0  0  0  0  0  0
   18.5549   19.3169   21.7431 C   0  0  0  0  0  0  0  0  0  0  0  0
   17.4967   19.1538   21.4974 H   0  0  0  0  0  0  0  0  0  0  0  0
   19.0814   19.3330   20.7791 H   0  0  0  0  0  0  0  0  0  0  0  0
   20.1062   22.3511   23.4360 O   0  0  0  0  0  0  0  0  0  0  0  0
   20.8717   22.4815   24.0340 H   0  0  0  0  0  0  0  0  0  0  0  0
  1  2  1  0  0  0  0
  1  3  1  0  0  0  0
  1  4  1  0  0  0  0
  4  5  1  0  0  0  0
  4  6  1  0  0  0  0
  4  7  1  0  0  0  0
  7  8  1  0  0  0  0
  7  9  1  0  0  0  0
  7 10  1  0  0  0  0
 10 11  1  0  0  0  0
 10 12  1  0  0  0  0
 10 13  1  0  0  0  0
 13 14  1  0  0  0  0
 13 15  1  0  0  0  0
 15 16  1  0  0  0  0
 15 17  1  0  0  0  0
  1 18  1  0  0  0  0
 15 18  1  0  0  0  0
 18 19  1  0  0  0  0
 18 20  1  0  0  0  0
 13 21  1  0  0  0  0
 21 22  1  0  0  0  0
M  END
> <VConfSearch Rank>
418

> <Conf_Id>
144

> <Delta U+W>
-3.291

> <U+W>
3.132

> <U>
5.411

> <W>
-2.279

> <W(PB)>
-4.300

> <W(SA)>
2.021

> <Valence>
11.909

> <Coulomb>
-8.733

> <VdW>
2.236

> <VdW6>
-8.936

> <VdW12>
11.172

> <Bond>
0.223

> <Angle>
2.457

> <Pdih>
9.228

> <Idih>
0.000

> <Tether>
0.000

$$$$
VeraChem MOL file


 22 22  0  0  0  0  0  0  0  0999 V2000     
   19.4667   19.5903   24.3200 C   0  0  0  0  0  0  0  0  0  0  0  0
   19.4591   19.5981   25.4186 H   0  0  0  0  0  0  0  0  0  0  0  0
   18.4158   19.6616   24.0083 H   0  0  0  0  0  0  0  0  0  0  0  0
   20.0899   18.2531   23.8555 C   0  0  0  0  0  0  0  0  0  0  0  0
   21.1853   18.3325   23.8792 H   0  0  0  0  0  0  0  0  0  0  0  0
   19.8372   17.4711   24.5847 H   0  0  0  0  0  0  0  0  0  0  0  0
   19.6344   17.7670   22.4583 C   0  0  0  0  0  0  0  0  0  0  0  0
   18.6787   17.2348   22.5591 H   0  0  0  0  0  0  0  0  0  0  0  0
   20.3565   17.0186   22.1041 H   0  0  0  0  0  0  0  0  0  0  0  0
   19.4663   18.8585   21.3727 C   0  0  0  0  0  0  0  0  0  0  0  0
   19.4741   18.3617   20.3930 H   0  0  0  0  0  0  0  0  0  0  0  0
   18.4713   19.3120   21.4685 H   0  0  0  0  0  0  0  0  0  0  0  0
   20.5389   19.9706   21.3953 C   0  0  0  0  0  0  0  0  0  0  0  0
   21.5041   19.5450   21.7048 H   0  0  0  0  0  0  0  0  0  0  0  0
   20.1618   21.1383   22.3351 C   0  0  0  0  0  0  0  0  0  0  0  0
   20.8190   21.9910   22.1176 H   0  0  0  0  0  0  0  0  0  0  0  0
   19.1421   21.4760   22.1089 H   0  0  0  0  0  0  0  0  0  0  0  0
   20.2691   20.8260   23.8466 C   0  0  0  0  0  0  0  0  0  0  0  0
   21.3262   20.7006   24.1183 H   0  0  0  0  0  0  0  0  0  0  0  0
   19.9192   21.7054   24.4043 H   0  0  0  0  0  0  0  0  0  0  0  0
   20.6683   20.4934   20.0800 O   0  0  0  0  0  0  0  0  0  0  0  0
   19.7922   20.8599   19.8406 H   0  0  0  0  0  0  0  0  0  0  0  0
  1  2  1  0  0  0  0
  1  3  1  0  0  0  0
  1  4  1  0  0  0  0
  4  5  1  0  0  0  0
  4  6  1  0  0  0  0
  4  7  1  0  0  0  0
  7  8  1  0  0  0  0
  7  9  1  0  0  0  0
  7 10  1  0  0  0  0
 10 11  1  0  0  0  0
 10 12  1  0  0  0  0
 10 13  1  0  0  0  0
 13 14  1  0  0  0  0
 13 15  1  0  0  0  0
 15 16  1  0  0  0  0
 15 17  1  0  0  0  0
  1 18  1  0  0  0  0
 15 18  1  0  0  0  0
 18 19  1  0  0  0  0
 18 20  1  0  0  0  0
 13 21  1  0  0  0  0
 21 22  1  0  0  0  0
M  END
> <VConfSearch Rank>
419

> <Conf_Id>
76

> <Delta U+W>
-3.175

> <U+W>
3.248

> <U>
5.336

> <W>
-2.088

> <W(PB)>
-4.098

> <W(SA)>
2.010

> <Valence>
12.390

> <Coulomb>
-9.270

> <VdW>
2.216

> <VdW6>
-8.967

> <VdW12>
11.183

> <Bond>
0.218

> <Angle>
2.426

> <Pdih>
9.745

> <Idih>
0.000

> <Tether>
0.000

$$$$
VeraChem MOL file


 22 22  0  0  0  0  0  0  0  0999 V2000     
   18.8816   18.3234   21.9231 C   0  0  0  0  0  0  0  0  0  0  0  0
   17.8018   18.2386   22.1070 H   0  0  0  0  0  0  0  0  0  0  0  0
   19.1086   17.5902   21.1372 H   0  0  0  0  0  0  0  0  0  0  0  0
   19.6263   17.9179   23.2176 C   0  0  0  0  0  0  0  0  0  0  0  0
   19.0593   18.2666   24.0913 H   0  0  0  0  0  0  0  0  0  0  0  0
   19.6210   16.8213   23.2828 H   0  0  0  0  0  0  0  0  0  0  0  0
   21.0856   18.4199   23.3175 C   0  0  0  0  0  0  0  0  0  0  0  0
   21.5805   18.3890   22.3372 H   0  0  0  0  0  0  0  0  0  0  0  0
   21.6417   17.7255   23.9615 H   0  0  0  0  0  0  0  0  0  0  0  0
   21.1923   19.8332   23.9445 C   0  0  0  0  0  0  0  0  0  0  0  0
   20.6291   19.8536   24.8862 H   0  0  0  0  0  0  0  0  0  0  0  0
   22.2387   20.0147   24.2229 H   0  0  0  0  0  0  0  0  0  0  0  0
   20.7240   21.0104   23.0590 C   0  0  0  0  0  0  0  0  0  0  0  0
   20.6924   21.8998   23.7048 H   0  0  0  0  0  0  0  0  0  0  0  0
   19.3140   20.8477   22.4379 C   0  0  0  0  0  0  0  0  0  0  0  0
   18.5736   20.6879   23.2324 H   0  0  0  0  0  0  0  0  0  0  0  0
   19.0454   21.8043   21.9713 H   0  0  0  0  0  0  0  0  0  0  0  0
   19.1905   19.7336   21.3661 C   0  0  0  0  0  0  0  0  0  0  0  0
   18.3875   20.0031   20.6669 H   0  0  0  0  0  0  0  0  0  0  0  0
   20.1037   19.6929   20.7580 H   0  0  0  0  0  0  0  0  0  0  0  0
   21.6867   21.2399   22.0350 O   0  0  0  0  0  0  0  0  0  0  0  0
   21.3278   21.9543   21.4700 H   0  0  0  0  0  0  0  0  0  0  0  0
  1  2  1  0  0  0  0
  1  3  1  0  0  0  0
  1  4  1  0  0  0  0
  4  5  1  0  0  0  0
  4  6  1  0  0  0  0
  4  7  1  0  0  0  0
  7  8  1  0  0  0  0
  7  9  1  0  0  0  0
  7 10  1  0  0  0  0
 10 11  1  0  0  0  0
 10 12  1  0  0  0  0
 10 13  1  0  0  0  0
 13 14  1  0  0  0  0
 13 15  1  0  0  0  0
 15 16  1  0  0  0  0
 15 17  1  0  0  0  0
  1 18  1  0  0  0  0
 15 18  1  0  0  0  0
 18 19  1  0  0  0  0
 18 20  1  0  0  0  0
 13 21  1  0  0  0  0
 21 22  1  0  0  0  0
M  END
> <VConfSearch Rank>
420

> <Conf_Id>
95

> <Delta U+W>
-2.289

> <U+W>
4.134

> <U>
6.373

> <W>
-2.240

> <W(PB)>
-4.254

> <W(SA)>
2.015

> <Valence>
12.093

> <Coulomb>
-8.058

> <VdW>
2.339

> <VdW6>
-9.683

> <VdW12>
12.022

> <Bond>
0.268

> <Angle>
3.005

> <Pdih>
8.820

> <Idih>
0.000

> <Tether>
0.000

$$$$
VeraChem MOL file


 22 22  0  0  0  0  0  0  0  0999 V2000     
   21.9265   19.6290   22.3713 C   0  0  0  0  0  0  0  0  0  0  0  0
   22.4610   20.0728   21.5204 H   0  0  0  0  0  0  0  0  0  0  0  0
   22.7034   19.2105   23.0256 H   0  0  0  0  0  0  0  0  0  0  0  0
   21.0441   18.4745   21.8396 C   0  0  0  0  0  0  0  0  0  0  0  0
   20.6466   18.7429   20.8514 H   0  0  0  0  0  0  0  0  0  0  0  0
   21.6915   17.6036   21.6686 H   0  0  0  0  0  0  0  0  0  0  0  0
   19.8789   18.0592   22.7677 C   0  0  0  0  0  0  0  0  0  0  0  0
   20.1800   18.1087   23.8230 H   0  0  0  0  0  0  0  0  0  0  0  0
   19.6429   17.0054   22.5670 H   0  0  0  0  0  0  0  0  0  0  0  0
   18.5926   18.8869   22.5188 C   0  0  0  0  0  0  0  0  0  0  0  0
   18.3686   18.8875   21.4442 H   0  0  0  0  0  0  0  0  0  0  0  0
   17.7467   18.3717   22.9920 H   0  0  0  0  0  0  0  0  0  0  0  0
   18.6147   20.3490   23.0201 C   0  0  0  0  0  0  0  0  0  0  0  0
   17.7161   20.8370   22.6159 H   0  0  0  0  0  0  0  0  0  0  0  0
   19.8334   21.1853   22.5556 C   0  0  0  0  0  0  0  0  0  0  0  0
   19.8855   21.1946   21.4594 H   0  0  0  0  0  0  0  0  0  0  0  0
   19.6468   22.2245   22.8557 H   0  0  0  0  0  0  0  0  0  0  0  0
   21.1978   20.7496   23.1507 C   0  0  0  0  0  0  0  0  0  0  0  0
   21.8623   21.6233   23.1856 H   0  0  0  0  0  0  0  0  0  0  0  0
   21.0677   20.4427   24.1969 H   0  0  0  0  0  0  0  0  0  0  0  0
   18.5253   20.3622   24.4416 O   0  0  0  0  0  0  0  0  0  0  0  0
   17.7540   19.8088   24.6803 H   0  0  0  0  0  0  0  0  0  0  0  0
  1  2  1  0  0  0  0
  1  3  1  0  0  0  0
  1  4  1  0  0  0  0
  4  5  1  0  0  0  0
  4  6  1  0  0  0  0
  4  7  1  0  0  0  0
  7  8  1  0  0  0  0
  7  9  1  0  0  0  0
  7 10  1  0  0  0  0
 10 11  1  0  0  0  0
 10 12  1  0  0  0  0
 10 13  1  0  0  0  0
 13 14  1  0  0  0  0
 13 15  1  0  0  0  0
 15 16  1  0  0  0  0
 15 17  1  0  0  0  0
  1 18  1  0  0  0  0
 15 18  1  0  0  0  0
 18 19  1  0  0  0  0
 18 20  1  0  0  0  0
 13 21  1  0  0  0  0
 21 22  1  0  0  0  0
M  END
> <VConfSearch Rank>
421

> <Conf_Id>
41

> <Delta U+W>
-2.114

> <U+W>
4.310

> <U>
6.598

> <W>
-2.289

> <W(PB)>
-4.294

> <W(SA)>
2.005

> <Valence>
12.082

> <Coulomb>
-7.801

> <VdW>
2.317

> <VdW6>
-9.658

> <VdW12>
11.975

> <Bond>
0.267

> <Angle>
3.051

> <Pdih>
8.764

> <Idih>
0.000

> <Tether>
0.000

$$$$
VeraChem MOL file


 22 22  0  0  0  0  0  0  0  0999 V2000     
   18.5031   19.8112   22.2708 C   0  0  0  0  0  0  0  0  0  0  0  0
   17.4239   19.7511   22.0752 H   0  0  0  0  0  0  0  0  0  0  0  0
   18.7619   20.8786   22.2445 H   0  0  0  0  0  0  0  0  0  0  0  0
   19.2321   19.0442   21.1449 C   0  0  0  0  0  0  0  0  0  0  0  0
   19.0094   17.9717   21.2270 H   0  0  0  0  0  0  0  0  0  0  0  0
   18.8198   19.3642   20.1784 H   0  0  0  0  0  0  0  0  0  0  0  0
   20.7622   19.2515   21.1103 C   0  0  0  0  0  0  0  0  0  0  0  0
   20.9841   20.2863   20.8173 H   0  0  0  0  0  0  0  0  0  0  0  0
   21.1704   18.6245   20.3064 H   0  0  0  0  0  0  0  0  0  0  0  0
   21.5055   18.9016   22.4279 C   0  0  0  0  0  0  0  0  0  0  0  0
   21.2242   17.8953   22.7633 H   0  0  0  0  0  0  0  0  0  0  0  0
   22.5779   18.8490   22.2003 H   0  0  0  0  0  0  0  0  0  0  0  0
   21.3350   19.9111   23.5923 C   0  0  0  0  0  0  0  0  0  0  0  0
   22.1447   19.7069   24.3077 H   0  0  0  0  0  0  0  0  0  0  0  0
   20.0126   19.8012   24.3951 C   0  0  0  0  0  0  0  0  0  0  0  0
   20.2033   19.1774   25.2780 H   0  0  0  0  0  0  0  0  0  0  0  0
   19.7521   20.7910   24.7926 H   0  0  0  0  0  0  0  0  0  0  0  0
   18.7747   19.2170   23.6705 C   0  0  0  0  0  0  0  0  0  0  0  0
   18.8651   18.1246   23.5995 H   0  0  0  0  0  0  0  0  0  0  0  0
   17.8971   19.3990   24.3056 H   0  0  0  0  0  0  0  0  0  0  0  0
   21.5014   21.2463   23.1227 O   0  0  0  0  0  0  0  0  0  0  0  0
   21.4234   21.8322   23.9028 H   0  0  0  0  0  0  0  0  0  0  0  0
  1  2  1  0  0  0  0
  1  3  1  0  0  0  0
  1  4  1  0  0  0  0
  4  5  1  0  0  0  0
  4  6  1  0  0  0  0
  4  7  1  0  0  0  0
  7  8  1  0  0  0  0
  7  9  1  0  0  0  0
  7 10  1  0  0  0  0
 10 11  1  0  0  0  0
 10 12  1  0  0  0  0
 10 13  1  0  0  0  0
 13 14  1  0  0  0  0
 13 15  1  0  0  0  0
 15 16  1  0  0  0  0
 15 17  1  0  0  0  0
  1 18  1  0  0  0  0
 15 18  1  0  0  0  0
 18 19  1  0  0  0  0
 18 20  1  0  0  0  0
 13 21  1  0  0  0  0
 21 22  1  0  0  0  0
M  END
> <VConfSearch Rank>
422

> <Conf_Id>
104

> <Delta U+W>
-1.172

> <U+W>
5.252

> <U>
7.482

> <W>
-2.230

> <W(PB)>
-4.220

> <W(SA)>
1.990

> <Valence>
12.309

> <Coulomb>
-7.084

> <VdW>
2.258

> <VdW6>
-9.770

> <VdW12>
12.028

> <Bond>
0.284

> <Angle>
3.491

> <Pdih>
8.535

> <Idih>
0.000

> <Tether>
0.000

$$$$
VeraChem MOL file


 22 22  0  0  0  0  0  0  0  0999 V2000     
   21.1963   18.3946   22.6792 C   0  0  0  0  0  0  0  0  0  0  0  0
   21.2613   18.3596   21.5832 H   0  0  0  0  0  0  0  0  0  0  0  0
   21.8841   17.6212   23.0475 H   0  0  0  0  0  0  0  0  0  0  0  0
   19.7732   18.0294   23.1598 C   0  0  0  0  0  0  0  0  0  0  0  0
   19.6644   16.9364   23.1338 H   0  0  0  0  0  0  0  0  0  0  0  0
   19.6662   18.3003   24.2183 H   0  0  0  0  0  0  0  0  0  0  0  0
   18.6097   18.6390   22.3375 C   0  0  0  0  0  0  0  0  0  0  0  0
   17.7238   18.7046   22.9842 H   0  0  0  0  0  0  0  0  0  0  0  0
   18.3379   17.9312   21.5425 H   0  0  0  0  0  0  0  0  0  0  0  0
   18.8566   20.0193   21.6703 C   0  0  0  0  0  0  0  0  0  0  0  0
   19.4446   19.8752   20.7547 H   0  0  0  0  0  0  0  0  0  0  0  0
   17.8882   20.4100   21.3317 H   0  0  0  0  0  0  0  0  0  0  0  0
   19.5385   21.1065   22.5323 C   0  0  0  0  0  0  0  0  0  0  0  0
   19.2854   22.0808   22.0900 H   0  0  0  0  0  0  0  0  0  0  0  0
   21.0801   20.9992   22.5245 C   0  0  0  0  0  0  0  0  0  0  0  0
   21.4296   21.0317   21.4844 H   0  0  0  0  0  0  0  0  0  0  0  0
   21.4882   21.8999   23.0015 H   0  0  0  0  0  0  0  0  0  0  0  0
   21.6903   19.7573   23.2204 C   0  0  0  0  0  0  0  0  0  0  0  0
   22.7807   19.8034   23.0949 H   0  0  0  0  0  0  0  0  0  0  0  0
   21.5154   19.8137   24.3033 H   0  0  0  0  0  0  0  0  0  0  0  0
   19.0517   21.0643   23.8648 O   0  0  0  0  0  0  0  0  0  0  0  0
   19.2374   20.1500   24.1577 H   0  0  0  0  0  0  0  0  0  0  0  0
  1  2  1  0  0  0  0
  1  3  1  0  0  0  0
  1  4  1  0  0  0  0
  4  5  1  0  0  0  0
  4  6  1  0  0  0  0
  4  7  1  0  0  0  0
  7  8  1  0  0  0  0
  7  9  1  0  0  0  0
  7 10  1  0  0  0  0
 10 11  1  0  0  0  0
 10 12  1  0  0  0  0
 10 13  1  0  0  0  0
 13 14  1  0  0  0  0
 13 15  1  0  0  0  0
 15 16  1  0  0  0  0
 15 17  1  0  0  0  0
  1 18  1  0  0  0  0
 15 18  1  0  0  0  0
 18 19  1  0  0  0  0
 18 20  1  0  0  0  0
 13 21  1  0  0  0  0
 21 22  1  0  0  0  0
M  END
> <VConfSearch Rank>
423

> <Conf_Id>
99

> <Delta U+W>
-3.852

> <U+W>
2.572

> <U>
3.922

> <W>
-1.350

> <W(PB)>
-3.345

> <W(SA)>
1.995

> <Valence>
12.571

> <Coulomb>
-10.581

> <VdW>
1.932

> <VdW6>
-10.483

> <VdW12>
12.415

> <Bond>
0.268

> <Angle>
3.728

> <Pdih>
8.575

> <Idih>
0.000

> <Tether>
0.000

$$$$
VeraChem MOL file


 22 22  0  0  0  0  0  0  0  0999 V2000     
   21.5304   20.0509   22.0056 C   0  0  0  0  0  0  0  0  0  0  0  0
   22.4170   20.6987   21.9648 H   0  0  0  0  0  0  0  0  0  0  0  0
   21.6786   19.3172   21.2020 H   0  0  0  0  0  0  0  0  0  0  0  0
   20.2819   20.9310   21.7048 C   0  0  0  0  0  0  0  0  0  0  0  0
   20.6281   21.9597   21.5336 H   0  0  0  0  0  0  0  0  0  0  0  0
   19.8231   20.6251   20.7551 H   0  0  0  0  0  0  0  0  0  0  0  0
   19.1994   20.9755   22.8134 C   0  0  0  0  0  0  0  0  0  0  0  0
   18.4818   21.7693   22.5653 H   0  0  0  0  0  0  0  0  0  0  0  0
   19.6514   21.2984   23.7595 H   0  0  0  0  0  0  0  0  0  0  0  0
   18.3980   19.6629   23.0360 C   0  0  0  0  0  0  0  0  0  0  0  0
   17.9765   19.6860   24.0493 H   0  0  0  0  0  0  0  0  0  0  0  0
   17.5315   19.6670   22.3613 H   0  0  0  0  0  0  0  0  0  0  0  0
   19.1337   18.3141   22.8421 C   0  0  0  0  0  0  0  0  0  0  0  0
   18.4823   17.5322   23.2581 H   0  0  0  0  0  0  0  0  0  0  0  0
   20.5072   18.1757   23.5439 C   0  0  0  0  0  0  0  0  0  0  0  0
   20.3351   18.0229   24.6171 H   0  0  0  0  0  0  0  0  0  0  0  0
   20.9679   17.2444   23.1885 H   0  0  0  0  0  0  0  0  0  0  0  0
   21.5369   19.3275   23.3765 C   0  0  0  0  0  0  0  0  0  0  0  0
   21.4071   20.0603   24.1825 H   0  0  0  0  0  0  0  0  0  0  0  0
   22.5389   18.9091   23.5426 H   0  0  0  0  0  0  0  0  0  0  0  0
   19.2780   18.0454   21.4563 O   0  0  0  0  0  0  0  0  0  0  0  0
   19.8609   18.7627   21.1359 H   0  0  0  0  0  0  0  0  0  0  0  0
  1  2  1  0  0  0  0
  1  3  1  0  0  0  0
  1  4  1  0  0  0  0
  4  5  1  0  0  0  0
  4  6  1  0  0  0  0
  4  7  1  0  0  0  0
  7  8  1  0  0  0  0
  7  9  1  0  0  0  0
  7 10  1  0  0  0  0
 10 11  1  0  0  0  0
 10 12  1  0  0  0  0
 10 13  1  0  0  0  0
 13 14  1  0  0  0  0
 13 15  1  0  0  0  0
 15 16  1  0  0  0  0
 15 17  1  0  0  0  0
  1 18  1  0  0  0  0
 15 18  1  0  0  0  0
 18 19  1  0  0  0  0
 18 20  1  0  0  0  0
 13 21  1  0  0  0  0
 21 22  1  0  0  0  0
M  END
> <VConfSearch Rank>
424

> <Conf_Id>
98

> <Delta U+W>
0.930

> <U+W>
7.353

> <U>
8.455

> <W>
-1.102

> <W(PB)>
-3.101

> <W(SA)>
2.000

> <Valence>
15.601

> <Coulomb>
-10.573

> <VdW>
3.427

> <VdW6>
-11.360

> <VdW12>
14.787

> <Bond>
0.471

> <Angle>
5.445

> <Pdih>
9.685

> <Idih>
0.000

> <Tether>
0.000

$$$$
VeraChem MOL file


 22 22  0  0  0  0  0  0  0  0999 V2000     
   21.0532   20.6216   21.8216 C   0  0  0  0  0  0  0  0  0  0  0  0
   21.5940   20.7492   22.7682 H   0  0  0  0  0  0  0  0  0  0  0  0
   21.6108   21.2236   21.0913 H   0  0  0  0  0  0  0  0  0  0  0  0
   19.6232   21.2048   21.9525 C   0  0  0  0  0  0  0  0  0  0  0  0
   19.7221   22.2679   22.2114 H   0  0  0  0  0  0  0  0  0  0  0  0
   19.1258   21.1822   20.9734 H   0  0  0  0  0  0  0  0  0  0  0  0
   18.7020   20.5338   23.0088 C   0  0  0  0  0  0  0  0  0  0  0  0
   17.9766   19.8764   22.5121 H   0  0  0  0  0  0  0  0  0  0  0  0
   18.0954   21.3179   23.4818 H   0  0  0  0  0  0  0  0  0  0  0  0
   19.4430   19.7414   24.1183 C   0  0  0  0  0  0  0  0  0  0  0  0
   20.2104   20.3838   24.5678 H   0  0  0  0  0  0  0  0  0  0  0  0
   18.7325   19.5401   24.9313 H   0  0  0  0  0  0  0  0  0  0  0  0
   20.0954   18.3991   23.6751 C   0  0  0  0  0  0  0  0  0  0  0  0
   21.1121   18.3625   24.0923 H   0  0  0  0  0  0  0  0  0  0  0  0
   20.1917   18.1652   22.1466 C   0  0  0  0  0  0  0  0  0  0  0  0
   20.5521   17.1444   21.9652 H   0  0  0  0  0  0  0  0  0  0  0  0
   19.1886   18.1962   21.7046 H   0  0  0  0  0  0  0  0  0  0  0  0
   21.1226   19.1399   21.3830 C   0  0  0  0  0  0  0  0  0  0  0  0
   22.1612   18.7993   21.4933 H   0  0  0  0  0  0  0  0  0  0  0  0
   20.8950   19.0705   20.3106 H   0  0  0  0  0  0  0  0  0  0  0  0
   19.3371   17.3269   24.2235 O   0  0  0  0  0  0  0  0  0  0  0  0
   19.8003   16.4989   23.9785 H   0  0  0  0  0  0  0  0  0  0  0  0
  1  2  1  0  0  0  0
  1  3  1  0  0  0  0
  1  4  1  0  0  0  0
  4  5  1  0  0  0  0
  4  6  1  0  0  0  0
  4  7  1  0  0  0  0
  7  8  1  0  0  0  0
  7  9  1  0  0  0  0
  7 10  1  0  0  0  0
 10 11  1  0  0  0  0
 10 12  1  0  0  0  0
 10 13  1  0  0  0  0
 13 14  1  0  0  0  0
 13 15  1  0  0  0  0
 15 16  1  0  0  0  0
 15 17  1  0  0  0  0
  1 18  1  0  0  0  0
 15 18  1  0  0  0  0
 18 19  1  0  0  0  0
 18 20  1  0  0  0  0
 13 21  1  0  0  0  0
 21 22  1  0  0  0  0
M  END
> <VConfSearch Rank>
425

> <Conf_Id>
141

> <Delta U+W>
0.000

> <U+W>
6.423

> <U>
8.781

> <W>
-2.358

> <W(PB)>
-4.373

> <W(SA)>
2.015

> <Valence>
13.328

> <Coulomb>
-8.387

> <VdW>
3.840

> <VdW6>
-9.744

> <VdW12>
13.584

> <Bond>
0.436

> <Angle>
3.478

> <Pdih>
9.415

> <Idih>
0.000

> <Tether>
0.000

$$$$
VeraChem MOL file


 22 22  0  0  0  0  0  0  0  0999 V2000     
   18.7588   20.8222   22.9561 C   0  0  0  0  0  0  0  0  0  0  0  0
   18.2810   20.5376   22.0089 H   0  0  0  0  0  0  0  0  0  0  0  0
   18.1119   21.5886   23.4043 H   0  0  0  0  0  0  0  0  0  0  0  0
   20.1444   21.4649   22.7060 C   0  0  0  0  0  0  0  0  0  0  0  0
   19.9958   22.4388   22.2198 H   0  0  0  0  0  0  0  0  0  0  0  0
   20.6242   21.6828   23.6699 H   0  0  0  0  0  0  0  0  0  0  0  0
   21.1095   20.6319   21.8313 C   0  0  0  0  0  0  0  0  0  0  0  0
   22.0720   21.1594   21.7855 H   0  0  0  0  0  0  0  0  0  0  0  0
   20.7340   20.6034   20.7992 H   0  0  0  0  0  0  0  0  0  0  0  0
   21.3609   19.1873   22.3285 C   0  0  0  0  0  0  0  0  0  0  0  0
   22.2201   18.7897   21.7724 H   0  0  0  0  0  0  0  0  0  0  0  0
   21.6551   19.1874   23.3860 H   0  0  0  0  0  0  0  0  0  0  0  0
   20.1457   18.2594   22.1049 C   0  0  0  0  0  0  0  0  0  0  0  0
   19.6306   18.5818   21.1886 H   0  0  0  0  0  0  0  0  0  0  0  0
   19.1203   18.2546   23.2615 C   0  0  0  0  0  0  0  0  0  0  0  0
   18.1825   17.8389   22.8710 H   0  0  0  0  0  0  0  0  0  0  0  0
   19.4559   17.5585   24.0418 H   0  0  0  0  0  0  0  0  0  0  0  0
   18.8195   19.6204   23.9278 C   0  0  0  0  0  0  0  0  0  0  0  0
   17.8582   19.5375   24.4530 H   0  0  0  0  0  0  0  0  0  0  0  0
   19.5651   19.8201   24.7094 H   0  0  0  0  0  0  0  0  0  0  0  0
   20.6126   16.9281   21.9242 O   0  0  0  0  0  0  0  0  0  0  0  0
   21.2012   16.9392   21.1406 H   0  0  0  0  0  0  0  0  0  0  0  0
  1  2  1  0  0  0  0
  1  3  1  0  0  0  0
  1  4  1  0  0  0  0
  4  5  1  0  0  0  0
  4  6  1  0  0  0  0
  4  7  1  0  0  0  0
  7  8  1  0  0  0  0
  7  9  1  0  0  0  0
  7 10  1  0  0  0  0
 10 11  1  0  0  0  0
 10 12  1  0  0  0  0
 10 13  1  0  0  0  0
 13 14  1  0  0  0  0
 13 15  1  0  0  0  0
 15 16  1  0  0  0  0
 15 17  1  0  0  0  0
  1 18  1  0  0  0  0
 15 18  1  0  0  0  0
 18 19  1  0  0  0  0
 18 20  1  0  0  0  0
 13 21  1  0  0  0  0
 21 22  1  0  0  0  0
M  END
> <VConfSearch Rank>
426

> <Conf_Id>
144

> <Delta U+W>
-3.291

> <U+W>
3.132

> <U>
5.411

> <W>
-2.279

> <W(PB)>
-4.300

> <W(SA)>
2.021

> <Valence>
11.909

> <Coulomb>
-8.733

> <VdW>
2.236

> <VdW6>
-8.936

> <VdW12>
11.172

> <Bond>
0.223

> <Angle>
2.457

> <Pdih>
9.228

> <Idih>
0.000

> <Tether>
0.000

$$$$
VeraChem MOL file


 22 22  0  0  0  0  0  0  0  0999 V2000     
   20.8763   19.1523   21.2514 C   0  0  0  0  0  0  0  0  0  0  0  0
   21.6762   18.8398   20.5662 H   0  0  0  0  0  0  0  0  0  0  0  0
   20.0115   19.3940   20.6186 H   0  0  0  0  0  0  0  0  0  0  0  0
   21.3649   20.4034   22.0182 C   0  0  0  0  0  0  0  0  0  0  0  0
   21.9912   20.0917   22.8651 H   0  0  0  0  0  0  0  0  0  0  0  0
   22.0272   20.9857   21.3630 H   0  0  0  0  0  0  0  0  0  0  0  0
   20.2436   21.3449   22.5204 C   0  0  0  0  0  0  0  0  0  0  0  0
   19.9481   22.0167   21.7029 H   0  0  0  0  0  0  0  0  0  0  0  0
   20.6648   21.9928   23.3013 H   0  0  0  0  0  0  0  0  0  0  0  0
   18.9665   20.6610   23.0677 C   0  0  0  0  0  0  0  0  0  0  0  0
   18.4250   21.3982   23.6758 H   0  0  0  0  0  0  0  0  0  0  0  0
   18.2999   20.4190   22.2299 H   0  0  0  0  0  0  0  0  0  0  0  0
   19.2178   19.3869   23.9051 C   0  0  0  0  0  0  0  0  0  0  0  0
   20.1550   19.4958   24.4691 H   0  0  0  0  0  0  0  0  0  0  0  0
   19.2806   18.1099   23.0365 C   0  0  0  0  0  0  0  0  0  0  0  0
   19.2047   17.2334   23.6939 H   0  0  0  0  0  0  0  0  0  0  0  0
   18.4036   18.0716   22.3775 H   0  0  0  0  0  0  0  0  0  0  0  0
   20.5627   17.9578   22.1840 C   0  0  0  0  0  0  0  0  0  0  0  0
   21.4206   17.7767   22.8459 H   0  0  0  0  0  0  0  0  0  0  0  0
   20.4616   17.0519   21.5709 H   0  0  0  0  0  0  0  0  0  0  0  0
   18.1437   19.2371   24.8239 O   0  0  0  0  0  0  0  0  0  0  0  0
   17.3304   19.1451   24.2861 H   0  0  0  0  0  0  0  0  0  0  0  0
  1  2  1  0  0  0  0
  1  3  1  0  0  0  0
  1  4  1  0  0  0  0
  4  5  1  0  0  0  0
  4  6  1  0  0  0  0
  4  7  1  0  0  0  0
  7  8  1  0  0  0  0
  7  9  1  0  0  0  0
  7 10  1  0  0  0  0
 10 11  1  0  0  0  0
 10 12  1  0  0  0  0
 10 13  1  0  0  0  0
 13 14  1  0  0  0  0
 13 15  1  0  0  0  0
 15 16  1  0  0  0  0
 15 17  1  0  0  0  0
  1 18  1  0  0  0  0
 15 18  1  0  0  0  0
 18 19  1  0  0  0  0
 18 20  1  0  0  0  0
 13 21  1  0  0  0  0
 21 22  1  0  0  0  0
M  END
> <VConfSearch Rank>
427

> <Conf_Id>
76

> <Delta U+W>
-3.175

> <U+W>
3.248

> <U>
5.336

> <W>
-2.088

> <W(PB)>
-4.098

> <W(SA)>
2.010

> <Valence>
12.390

> <Coulomb>
-9.270

> <VdW>
2.216

> <VdW6>
-8.967

> <VdW12>
11.183

> <Bond>
0.218

> <Angle>
2.426

> <Pdih>
9.745

> <Idih>
0.000

> <Tether>
0.000

$$$$
VeraChem MOL file


 22 22  0  0  0  0  0  0  0  0999 V2000     
   21.9088   19.4886   22.3317 C   0  0  0  0  0  0  0  0  0  0  0  0
   22.4309   19.8909   21.4529 H   0  0  0  0  0  0  0  0  0  0  0  0
   22.6955   19.1103   22.9985 H   0  0  0  0  0  0  0  0  0  0  0  0
   21.0287   18.3022   21.8706 C   0  0  0  0  0  0  0  0  0  0  0  0
   20.6134   18.5182   20.8770 H   0  0  0  0  0  0  0  0  0  0  0  0
   21.6812   17.4292   21.7327 H   0  0  0  0  0  0  0  0  0  0  0  0
   19.8817   17.9242   22.8366 C   0  0  0  0  0  0  0  0  0  0  0  0
   20.1971   18.0319   23.8834 H   0  0  0  0  0  0  0  0  0  0  0  0
   19.6537   16.8592   22.6951 H   0  0  0  0  0  0  0  0  0  0  0  0
   18.5822   18.7248   22.5674 C   0  0  0  0  0  0  0  0  0  0  0  0
   18.3317   18.6580   21.5009 H   0  0  0  0  0  0  0  0  0  0  0  0
   17.7536   18.2355   23.0959 H   0  0  0  0  0  0  0  0  0  0  0  0
   18.5988   20.2137   22.9824 C   0  0  0  0  0  0  0  0  0  0  0  0
   17.6903   20.6697   22.5632 H   0  0  0  0  0  0  0  0  0  0  0  0
   19.8044   21.0315   22.4549 C   0  0  0  0  0  0  0  0  0  0  0  0
   19.8449   20.9704   21.3597 H   0  0  0  0  0  0  0  0  0  0  0  0
   19.6141   22.0877   22.6854 H   0  0  0  0  0  0  0  0  0  0  0  0
   21.1790   20.6432   23.0589 C   0  0  0  0  0  0  0  0  0  0  0  0
   21.8358   21.5233   23.0377 H   0  0  0  0  0  0  0  0  0  0  0  0
   21.0659   20.3905   24.1213 H   0  0  0  0  0  0  0  0  0  0  0  0
   18.5274   20.3066   24.4016 O   0  0  0  0  0  0  0  0  0  0  0  0
   18.5930   21.2580   24.6224 H   0  0  0  0  0  0  0  0  0  0  0  0
  1  2  1  0  0  0  0
  1  3  1  0  0  0  0
  1  4  1  0  0  0  0
  4  5  1  0  0  0  0
  4  6  1  0  0  0  0
  4  7  1  0  0  0  0
  7  8  1  0  0  0  0
  7  9  1  0  0  0  0
  7 10  1  0  0  0  0
 10 11  1  0  0  0  0
 10 12  1  0  0  0  0
 10 13  1  0  0  0  0
 13 14  1  0  0  0  0
 13 15  1  0  0  0  0
 15 16  1  0  0  0  0
 15 17  1  0  0  0  0
  1 18  1  0  0  0  0
 15 18  1  0  0  0  0
 18 19  1  0  0  0  0
 18 20  1  0  0  0  0
 13 21  1  0  0  0  0
 21 22  1  0  0  0  0
M  END
> <VConfSearch Rank>
428

> <Conf_Id>
95

> <Delta U+W>
-2.289

> <U+W>
4.134

> <U>
6.373

> <W>
-2.240

> <W(PB)>
-4.254

> <W(SA)>
2.015

> <Valence>
12.093

> <Coulomb>
-8.058

> <VdW>
2.339

> <VdW6>
-9.683

> <VdW12>
12.022

> <Bond>
0.268

> <Angle>
3.005

> <Pdih>
8.820

> <Idih>
0.000

> <Tether>
0.000

$$$$
VeraChem MOL file


 22 22  0  0  0  0  0  0  0  0999 V2000     
   18.3280   20.1202   22.0257 C   0  0  0  0  0  0  0  0  0  0  0  0
   17.3419   19.9020   22.4578 H   0  0  0  0  0  0  0  0  0  0  0  0
   18.1332   20.7222   21.1277 H   0  0  0  0  0  0  0  0  0  0  0  0
   18.9769   18.7815   21.6002 C   0  0  0  0  0  0  0  0  0  0  0  0
   18.7085   17.9989   22.3227 H   0  0  0  0  0  0  0  0  0  0  0  0
   18.5224   18.4712   20.6495 H   0  0  0  0  0  0  0  0  0  0  0  0
   20.5137   18.8222   21.4325 C   0  0  0  0  0  0  0  0  0  0  0  0
   20.8365   19.7775   20.9965 H   0  0  0  0  0  0  0  0  0  0  0  0
   20.7978   18.0456   20.7096 H   0  0  0  0  0  0  0  0  0  0  0  0
   21.2670   18.5339   22.7556 C   0  0  0  0  0  0  0  0  0  0  0  0
   20.8614   17.6197   23.2078 H   0  0  0  0  0  0  0  0  0  0  0  0
   22.3139   18.3023   22.5202 H   0  0  0  0  0  0  0  0  0  0  0  0
   21.2436   19.6611   23.8133 C   0  0  0  0  0  0  0  0  0  0  0  0
   21.6612   19.2376   24.7381 H   0  0  0  0  0  0  0  0  0  0  0  0
   19.8364   20.2090   24.1597 C   0  0  0  0  0  0  0  0  0  0  0  0
   19.1922   19.3924   24.5100 H   0  0  0  0  0  0  0  0  0  0  0  0
   19.9538   20.8864   25.0154 H   0  0  0  0  0  0  0  0  0  0  0  0
   19.1339   20.9907   23.0192 C   0  0  0  0  0  0  0  0  0  0  0  0
   18.4442   21.7203   23.4647 H   0  0  0  0  0  0  0  0  0  0  0  0
   19.8711   21.5886   22.4673 H   0  0  0  0  0  0  0  0  0  0  0  0
   22.0919   20.7240   23.3896 O   0  0  0  0  0  0  0  0  0  0  0  0
   22.9569   20.3226   23.1684 H   0  0  0  0  0  0  0  0  0  0  0  0
  1  2  1  0  0  0  0
  1  3  1  0  0  0  0
  1  4  1  0  0  0  0
  4  5  1  0  0  0  0
  4  6  1  0  0  0  0
  4  7  1  0  0  0  0
  7  8  1  0  0  0  0
  7  9  1  0  0  0  0
  7 10  1  0  0  0  0
 10 11  1  0  0  0  0
 10 12  1  0  0  0  0
 10 13  1  0  0  0  0
 13 14  1  0  0  0  0
 13 15  1  0  0  0  0
 15 16  1  0  0  0  0
 15 17  1  0  0  0  0
  1 18  1  0  0  0  0
 15 18  1  0  0  0  0
 18 19  1  0  0  0  0
 18 20  1  0  0  0  0
 13 21  1  0  0  0  0
 21 22  1  0  0  0  0
M  END
> <VConfSearch Rank>
429

> <Conf_Id>
41

> <Delta U+W>
-2.114

> <U+W>
4.310

> <U>
6.598

> <W>
-2.289

> <W(PB)>
-4.294

> <W(SA)>
2.005

> <Valence>
12.082

> <Coulomb>
-7.801

> <VdW>
2.317

> <VdW6>
-9.658

> <VdW12>
11.975

> <Bond>
0.267

> <Angle>
3.051

> <Pdih>
8.764

> <Idih>
0.000

> <Tether>
0.000

$$$$
VeraChem MOL file


 22 22  0  0  0  0  0  0  0  0999 V2000     
   20.2932   21.1441   22.3232 C   0  0  0  0  0  0  0  0  0  0  0  0
   20.1950   22.1740   21.9539 H   0  0  0  0  0  0  0  0  0  0  0  0
   21.0592   21.1710   23.1104 H   0  0  0  0  0  0  0  0  0  0  0  0
   20.7534   20.2594   21.1430 C   0  0  0  0  0  0  0  0  0  0  0  0
   19.9501   20.1954   20.3966 H   0  0  0  0  0  0  0  0  0  0  0  0
   21.5938   20.7559   20.6392 H   0  0  0  0  0  0  0  0  0  0  0  0
   21.2013   18.8360   21.5413 C   0  0  0  0  0  0  0  0  0  0  0  0
   22.1344   18.8943   22.1174 H   0  0  0  0  0  0  0  0  0  0  0  0
   21.4569   18.2921   20.6221 H   0  0  0  0  0  0  0  0  0  0  0  0
   20.1461   18.0065   22.3221 C   0  0  0  0  0  0  0  0  0  0  0  0
   19.1895   18.0122   21.7845 H   0  0  0  0  0  0  0  0  0  0  0  0
   20.4796   16.9609   22.3223 H   0  0  0  0  0  0  0  0  0  0  0  0
   19.9210   18.4141   23.8010 C   0  0  0  0  0  0  0  0  0  0  0  0
   19.4150   17.5678   24.2878 H   0  0  0  0  0  0  0  0  0  0  0  0
   19.0129   19.6499   24.0318 C   0  0  0  0  0  0  0  0  0  0  0  0
   17.9936   19.2901   24.2232 H   0  0  0  0  0  0  0  0  0  0  0  0
   19.3200   20.1515   24.9589 H   0  0  0  0  0  0  0  0  0  0  0  0
   18.9297   20.7057   22.9016 C   0  0  0  0  0  0  0  0  0  0  0  0
   18.2843   20.3366   22.0931 H   0  0  0  0  0  0  0  0  0  0  0  0
   18.4188   21.5902   23.3055 H   0  0  0  0  0  0  0  0  0  0  0  0
   21.1696   18.6067   24.4605 O   0  0  0  0  0  0  0  0  0  0  0  0
   20.9665   18.8212   25.3935 H   0  0  0  0  0  0  0  0  0  0  0  0
  1  2  1  0  0  0  0
  1  3  1  0  0  0  0
  1  4  1  0  0  0  0
  4  5  1  0  0  0  0
  4  6  1  0  0  0  0
  4  7  1  0  0  0  0
  7  8  1  0  0  0  0
  7  9  1  0  0  0  0
  7 10  1  0  0  0  0
 10 11  1  0  0  0  0
 10 12  1  0  0  0  0
 10 13  1  0  0  0  0
 13 14  1  0  0  0  0
 13 15  1  0  0  0  0
 15 16  1  0  0  0  0
 15 17  1  0  0  0  0
  1 18  1  0  0  0  0
 15 18  1  0  0  0  0
 18 19  1  0  0  0  0
 18 20  1  0  0  0  0
 13 21  1  0  0  0  0
 21 22  1  0  0  0  0
M  END
> <VConfSearch Rank>
430

> <Conf_Id>
104

> <Delta U+W>
-1.172

> <U+W>
5.252

> <U>
7.482

> <W>
-2.230

> <W(PB)>
-4.220

> <W(SA)>
1.990

> <Valence>
12.309

> <Coulomb>
-7.084

> <VdW>
2.258

> <VdW6>
-9.770

> <VdW12>
12.028

> <Bond>
0.284

> <Angle>
3.491

> <Pdih>
8.535

> <Idih>
0.000

> <Tether>
0.000

$$$$
VeraChem MOL file


 22 22  0  0  0  0  0  0  0  0999 V2000     
   19.6823   18.8144   24.0699 C   0  0  0  0  0  0  0  0  0  0  0  0
   18.9739   19.5939   24.3816 H   0  0  0  0  0  0  0  0  0  0  0  0
   19.6904   18.0721   24.8797 H   0  0  0  0  0  0  0  0  0  0  0  0
   21.1120   19.3877   23.9397 C   0  0  0  0  0  0  0  0  0  0  0  0
   21.5521   19.4627   24.9436 H   0  0  0  0  0  0  0  0  0  0  0  0
   21.7452   18.6675   23.4052 H   0  0  0  0  0  0  0  0  0  0  0  0
   21.2180   20.7825   23.2726 C   0  0  0  0  0  0  0  0  0  0  0  0
   22.2203   20.8827   22.8336 H   0  0  0  0  0  0  0  0  0  0  0  0
   21.1666   21.5483   24.0586 H   0  0  0  0  0  0  0  0  0  0  0  0
   20.1539   21.1410   22.2000 C   0  0  0  0  0  0  0  0  0  0  0  0
   19.2242   21.4381   22.7022 H   0  0  0  0  0  0  0  0  0  0  0  0
   20.4954   22.0404   21.6714 H   0  0  0  0  0  0  0  0  0  0  0  0
   19.8248   20.0597   21.1453 C   0  0  0  0  0  0  0  0  0  0  0  0
   19.3937   20.5734   20.2739 H   0  0  0  0  0  0  0  0  0  0  0  0
   18.7661   19.0461   21.6351 C   0  0  0  0  0  0  0  0  0  0  0  0
   17.8673   19.5969   21.9416 H   0  0  0  0  0  0  0  0  0  0  0  0
   18.4585   18.4319   20.7787 H   0  0  0  0  0  0  0  0  0  0  0  0
   19.1932   18.1021   22.7863 C   0  0  0  0  0  0  0  0  0  0  0  0
   18.3282   17.4771   23.0471 H   0  0  0  0  0  0  0  0  0  0  0  0
   19.9639   17.4053   22.4301 H   0  0  0  0  0  0  0  0  0  0  0  0
   21.0039   19.3799   20.7433 O   0  0  0  0  0  0  0  0  0  0  0  0
   21.3699   19.0237   21.5773 H   0  0  0  0  0  0  0  0  0  0  0  0
  1  2  1  0  0  0  0
  1  3  1  0  0  0  0
  1  4  1  0  0  0  0
  4  5  1  0  0  0  0
  4  6  1  0  0  0  0
  4  7  1  0  0  0  0
  7  8  1  0  0  0  0
  7  9  1  0  0  0  0
  7 10  1  0  0  0  0
 10 11  1  0  0  0  0
 10 12  1  0  0  0  0
 10 13  1  0  0  0  0
 13 14  1  0  0  0  0
 13 15  1  0  0  0  0
 15 16  1  0  0  0  0
 15 17  1  0  0  0  0
  1 18  1  0  0  0  0
 15 18  1  0  0  0  0
 18 19  1  0  0  0  0
 18 20  1  0  0  0  0
 13 21  1  0  0  0  0
 21 22  1  0  0  0  0
M  END
> <VConfSearch Rank>
431

> <Conf_Id>
99

> <Delta U+W>
-3.852

> <U+W>
2.572

> <U>
3.922

> <W>
-1.350

> <W(PB)>
-3.345

> <W(SA)>
1.995

> <Valence>
12.571

> <Coulomb>
-10.581

> <VdW>
1.932

> <VdW6>
-10.483

> <VdW12>
12.415

> <Bond>
0.268

> <Angle>
3.728

> <Pdih>
8.575

> <Idih>
0.000

> <Tether>
0.000

$$$$
VeraChem MOL file


 22 22  0  0  0  0  0  0  0  0999 V2000     
   20.1376   17.9275   22.6188 C   0  0  0  0  0  0  0  0  0  0  0  0
   20.6720   16.9739   22.7297 H   0  0  0  0  0  0  0  0  0  0  0  0
   19.1135   17.6471   22.3382 H   0  0  0  0  0  0  0  0  0  0  0  0
   20.8124   18.7213   21.4619 C   0  0  0  0  0  0  0  0  0  0  0  0
   21.6389   18.1112   21.0720 H   0  0  0  0  0  0  0  0  0  0  0  0
   20.1164   18.8268   20.6190 H   0  0  0  0  0  0  0  0  0  0  0  0
   21.3876   20.1109   21.8372 C   0  0  0  0  0  0  0  0  0  0  0  0
   21.9967   20.4720   20.9974 H   0  0  0  0  0  0  0  0  0  0  0  0
   22.0971   20.0062   22.6673 H   0  0  0  0  0  0  0  0  0  0  0  0
   20.3439   21.2116   22.1750 C   0  0  0  0  0  0  0  0  0  0  0  0
   20.8398   21.9797   22.7823 H   0  0  0  0  0  0  0  0  0  0  0  0
   20.0596   21.7177   21.2428 H   0  0  0  0  0  0  0  0  0  0  0  0
   19.0385   20.7872   22.8921 C   0  0  0  0  0  0  0  0  0  0  0  0
   18.5512   21.7091   23.2403 H   0  0  0  0  0  0  0  0  0  0  0  0
   19.2033   19.8705   24.1292 C   0  0  0  0  0  0  0  0  0  0  0  0
   19.5642   20.4801   24.9676 H   0  0  0  0  0  0  0  0  0  0  0  0
   18.2015   19.5327   24.4264 H   0  0  0  0  0  0  0  0  0  0  0  0
   20.1238   18.6249   24.0031 C   0  0  0  0  0  0  0  0  0  0  0  0
   21.1477   18.8900   24.2943 H   0  0  0  0  0  0  0  0  0  0  0  0
   19.8034   17.8926   24.7567 H   0  0  0  0  0  0  0  0  0  0  0  0
   18.1605   20.1758   21.9601 O   0  0  0  0  0  0  0  0  0  0  0  0
   18.6360   19.3671   21.6828 H   0  0  0  0  0  0  0  0  0  0  0  0
  1  2  1  0  0  0  0
  1  3  1  0  0  0  0
  1  4  1  0  0  0  0
  4  5  1  0  0  0  0
  4  6  1  0  0  0  0
  4  7  1  0  0  0  0
  7  8  1  0  0  0  0
  7  9  1  0  0  0  0
  7 10  1  0  0  0  0
 10 11  1  0  0  0  0
 10 12  1  0  0  0  0
 10 13  1  0  0  0  0
 13 14  1  0  0  0  0
 13 15  1  0  0  0  0
 15 16  1  0  0  0  0
 15 17  1  0  0  0  0
  1 18  1  0  0  0  0
 15 18  1  0  0  0  0
 18 19  1  0  0  0  0
 18 20  1  0  0  0  0
 13 21  1  0  0  0  0
 21 22  1  0  0  0  0
M  END
> <VConfSearch Rank>
432

> <Conf_Id>
98

> <Delta U+W>
0.930

> <U+W>
7.353

> <U>
8.455

> <W>
-1.102

> <W(PB)>
-3.101

> <W(SA)>
2.000

> <Valence>
15.601

> <Coulomb>
-10.573

> <VdW>
3.427

> <VdW6>
-11.360

> <VdW12>
14.787

> <Bond>
0.471

> <Angle>
5.445

> <Pdih>
9.685

> <Idih>
0.000

> <Tether>
0.000

$$$$
VeraChem MOL file


 22 22  0  0  0  0  0  0  0  0999 V2000     
   20.6383   19.4000   21.0586 C   0  0  0  0  0  0  0  0  0  0  0  0
   20.4675   20.4795   20.9572 H   0  0  0  0  0  0  0  0  0  0  0  0
   21.1099   19.0961   20.1142 H   0  0  0  0  0  0  0  0  0  0  0  0
   19.2803   18.6648   21.1910 C   0  0  0  0  0  0  0  0  0  0  0  0
   18.6935   18.8895   20.2898 H   0  0  0  0  0  0  0  0  0  0  0  0
   19.4468   17.5792   21.1744 H   0  0  0  0  0  0  0  0  0  0  0  0
   18.4196   19.0306   22.4320 C   0  0  0  0  0  0  0  0  0  0  0  0
   18.4896   18.2358   23.1860 H   0  0  0  0  0  0  0  0  0  0  0  0
   17.3645   19.0384   22.1267 H   0  0  0  0  0  0  0  0  0  0  0  0
   18.7578   20.3960   23.0869 C   0  0  0  0  0  0  0  0  0  0  0  0
   18.7488   21.1768   22.3162 H   0  0  0  0  0  0  0  0  0  0  0  0
   17.9392   20.6637   23.7685 H   0  0  0  0  0  0  0  0  0  0  0  0
   20.1042   20.4619   23.8657 C   0  0  0  0  0  0  0  0  0  0  0  0
   20.6209   21.3869   23.5716 H   0  0  0  0  0  0  0  0  0  0  0  0
   21.0743   19.2748   23.6424 C   0  0  0  0  0  0  0  0  0  0  0  0
   21.9229   19.3747   24.3315 H   0  0  0  0  0  0  0  0  0  0  0  0
   20.5828   18.3374   23.9294 H   0  0  0  0  0  0  0  0  0  0  0  0
   21.6418   19.1417   22.2071 C   0  0  0  0  0  0  0  0  0  0  0  0
   22.4814   19.8405   22.0906 H   0  0  0  0  0  0  0  0  0  0  0  0
   22.0687   18.1360   22.0932 H   0  0  0  0  0  0  0  0  0  0  0  0
   19.8168   20.5214   25.2582 O   0  0  0  0  0  0  0  0  0  0  0  0
   20.6754   20.6201   25.7201 H   0  0  0  0  0  0  0  0  0  0  0  0
  1  2  1  0  0  0  0
  1  3  1  0  0  0  0
  1  4  1  0  0  0  0
  4  5  1  0  0  0  0
  4  6  1  0  0  0  0
  4  7  1  0  0  0  0
  7  8  1  0  0  0  0
  7  9  1  0  0  0  0
  7 10  1  0  0  0  0
 10 11  1  0  0  0  0
 10 12  1  0  0  0  0
 10 13  1  0  0  0  0
 13 14  1  0  0  0  0
 13 15  1  0  0  0  0
 15 16  1  0  0  0  0
 15 17  1  0  0  0  0
  1 18  1  0  0  0  0
 15 18  1  0  0  0  0
 18 19  1  0  0  0  0
 18 20  1  0  0  0  0
 13 21  1  0  0  0  0
 21 22  1  0  0  0  0
M  END
> <VConfSearch Rank>
433

> <Conf_Id>
141

> <Delta U+W>
0.000

> <U+W>
6.423

> <U>
8.781

> <W>
-2.358

> <W(PB)>
-4.373

> <W(SA)>
2.015

> <Valence>
13.328

> <Coulomb>
-8.387

> <VdW>
3.840

> <VdW6>
-9.744

> <VdW12>
13.584

> <Bond>
0.436

> <Angle>
3.478

> <Pdih>
9.415

> <Idih>
0.000

> <Tether>
0.000

$$$$
VeraChem MOL file


 22 22  0  0  0  0  0  0  0  0999 V2000     
   20.2976   18.0452   21.9442 C   0  0  0  0  0  0  0  0  0  0  0  0
   20.4379   18.5420   20.9746 H   0  0  0  0  0  0  0  0  0  0  0  0
   20.5036   16.9799   21.7723 H   0  0  0  0  0  0  0  0  0  0  0  0
   18.8306   18.1686   22.4222 C   0  0  0  0  0  0  0  0  0  0  0  0
   18.1947   17.5662   21.7592 H   0  0  0  0  0  0  0  0  0  0  0  0
   18.7334   17.7179   23.4194 H   0  0  0  0  0  0  0  0  0  0  0  0
   18.2665   19.6078   22.4544 C   0  0  0  0  0  0  0  0  0  0  0  0
   17.2511   19.5682   22.8717 H   0  0  0  0  0  0  0  0  0  0  0  0
   18.1538   19.9786   21.4265 H   0  0  0  0  0  0  0  0  0  0  0  0
   19.1005   20.6188   23.2788 C   0  0  0  0  0  0  0  0  0  0  0  0
   18.4887   21.5202   23.4155 H   0  0  0  0  0  0  0  0  0  0  0  0
   19.2980   20.2282   24.2854 H   0  0  0  0  0  0  0  0  0  0  0  0
   20.4224   21.0107   22.5812 C   0  0  0  0  0  0  0  0  0  0  0  0
   20.2560   20.9948   21.4945 H   0  0  0  0  0  0  0  0  0  0  0  0
   21.6171   20.0841   22.9025 C   0  0  0  0  0  0  0  0  0  0  0  0
   22.3815   20.2501   22.1325 H   0  0  0  0  0  0  0  0  0  0  0  0
   22.0736   20.3956   23.8516 H   0  0  0  0  0  0  0  0  0  0  0  0
   21.3157   18.5667   22.9852 C   0  0  0  0  0  0  0  0  0  0  0  0
   22.2632   18.0251   22.8599 H   0  0  0  0  0  0  0  0  0  0  0  0
   20.9654   18.3162   23.9958 H   0  0  0  0  0  0  0  0  0  0  0  0
   20.7725   22.3328   22.9721 O   0  0  0  0  0  0  0  0  0  0  0  0
   20.0354   22.9147   22.6913 H   0  0  0  0  0  0  0  0  0  0  0  0
  1  2  1  0  0  0  0
  1  3  1  0  0  0  0
  1  4  1  0  0  0  0
  4  5  1  0  0  0  0
  4  6  1  0  0  0  0
  4  7  1  0  0  0  0
  7  8  1  0  0  0  0
  7  9  1  0  0  0  0
  7 10  1  0  0  0  0
 10 11  1  0  0  0  0
 10 12  1  0  0  0  0
 10 13  1  0  0  0  0
 13 14  1  0  0  0  0
 13 15  1  0  0  0  0
 15 16  1  0  0  0  0
 15 17  1  0  0  0  0
  1 18  1  0  0  0  0
 15 18  1  0  0  0  0
 18 19  1  0  0  0  0
 18 20  1  0  0  0  0
 13 21  1  0  0  0  0
 21 22  1  0  0  0  0
M  END
> <VConfSearch Rank>
434

> <Conf_Id>
144

> <Delta U+W>
-3.291

> <U+W>
3.132

> <U>
5.411

> <W>
-2.279

> <W(PB)>
-4.300

> <W(SA)>
2.021

> <Valence>
11.909

> <Coulomb>
-8.733

> <VdW>
2.236

> <VdW6>
-8.936

> <VdW12>
11.172

> <Bond>
0.223

> <Angle>
2.457

> <Pdih>
9.228

> <Idih>
0.000

> <Tether>
0.000

$$$$
VeraChem MOL file


 22 22  0  0  0  0  0  0  0  0999 V2000     
   19.1893   19.5450   24.2153 C   0  0  0  0  0  0  0  0  0  0  0  0
   18.5539   19.7582   25.0858 H   0  0  0  0  0  0  0  0  0  0  0  0
   19.8466   18.7172   24.5143 H   0  0  0  0  0  0  0  0  0  0  0  0
   20.0123   20.8162   23.9009 C   0  0  0  0  0  0  0  0  0  0  0  0
   19.4016   21.5093   23.3064 H   0  0  0  0  0  0  0  0  0  0  0  0
   20.2233   21.3444   24.8409 H   0  0  0  0  0  0  0  0  0  0  0  0
   21.3602   20.5645   23.1827 C   0  0  0  0  0  0  0  0  0  0  0  0
   22.1225   20.3108   23.9320 H   0  0  0  0  0  0  0  0  0  0  0  0
   21.6893   21.5105   22.7312 H   0  0  0  0  0  0  0  0  0  0  0  0
   21.3643   19.4597   22.0976 C   0  0  0  0  0  0  0  0  0  0  0  0
   22.2473   19.6154   21.4632 H   0  0  0  0  0  0  0  0  0  0  0  0
   21.5112   18.4835   22.5776 H   0  0  0  0  0  0  0  0  0  0  0  0
   20.0974   19.4092   21.2145 C   0  0  0  0  0  0  0  0  0  0  0  0
   19.7134   20.4281   21.0629 H   0  0  0  0  0  0  0  0  0  0  0  0
   18.9871   18.5215   21.8213 C   0  0  0  0  0  0  0  0  0  0  0  0
   18.2336   18.3227   21.0475 H   0  0  0  0  0  0  0  0  0  0  0  0
   19.4071   17.5446   22.0937 H   0  0  0  0  0  0  0  0  0  0  0  0
   18.2633   19.1227   23.0495 C   0  0  0  0  0  0  0  0  0  0  0  0
   17.6611   19.9847   22.7312 H   0  0  0  0  0  0  0  0  0  0  0  0
   17.5466   18.3788   23.4233 H   0  0  0  0  0  0  0  0  0  0  0  0
   20.4538   18.8605   19.9527 O   0  0  0  0  0  0  0  0  0  0  0  0
   20.7912   17.9581   20.1289 H   0  0  0  0  0  0  0  0  0  0  0  0
  1  2  1  0  0  0  0
  1  3  1  0  0  0  0
  1  4  1  0  0  0  0
  4  5  1  0  0  0  0
  4  6  1  0  0  0  0
  4  7  1  0  0  0  0
  7  8  1  0  0  0  0
  7  9  1  0  0  0  0
  7 10  1  0  0  0  0
 10 11  1  0  0  0  0
 10 12  1  0  0  0  0
 10 13  1  0  0  0  0
 13 14  1  0  0  0  0
 13 15  1  0  0  0  0
 15 16  1  0  0  0  0
 15 17  1  0  0  0  0
  1 18  1  0  0  0  0
 15 18  1  0  0  0  0
 18 19  1  0  0  0  0
 18 20  1  0  0  0  0
 13 21  1  0  0  0  0
 21 22  1  0  0  0  0
M  END
> <VConfSearch Rank>
435

> <Conf_Id>
76

> <Delta U+W>
-3.175

> <U+W>
3.248

> <U>
5.336

> <W>
-2.088

> <W(PB)>
-4.098

> <W(SA)>
2.010

> <Valence>
12.390

> <Coulomb>
-9.270

> <VdW>
2.216

> <VdW6>
-8.967

> <VdW12>
11.183

> <Bond>
0.218

> <Angle>
2.426

> <Pdih>
9.745

> <Idih>
0.000

> <Tether>
0.000

$$$$
VeraChem MOL file


 22 22  0  0  0  0  0  0  0  0999 V2000     
   21.9089   19.2010   22.6263 C   0  0  0  0  0  0  0  0  0  0  0  0
   22.5238   19.0344   21.7314 H   0  0  0  0  0  0  0  0  0  0  0  0
   22.6083   19.1974   23.4734 H   0  0  0  0  0  0  0  0  0  0  0  0
   20.9361   18.0066   22.7741 C   0  0  0  0  0  0  0  0  0  0  0  0
   20.6077   17.6760   21.7795 H   0  0  0  0  0  0  0  0  0  0  0  0
   21.4980   17.1611   23.1938 H   0  0  0  0  0  0  0  0  0  0  0  0
   19.6984   18.2768   23.6611 C   0  0  0  0  0  0  0  0  0  0  0  0
   19.9592   18.9138   24.5173 H   0  0  0  0  0  0  0  0  0  0  0  0
   19.3662   17.3191   24.0839 H   0  0  0  0  0  0  0  0  0  0  0  0
   18.5114   18.8793   22.8673 C   0  0  0  0  0  0  0  0  0  0  0  0
   18.3205   18.2623   21.9800 H   0  0  0  0  0  0  0  0  0  0  0  0
   17.6043   18.8015   23.4810 H   0  0  0  0  0  0  0  0  0  0  0  0
   18.6627   20.3528   22.4257 C   0  0  0  0  0  0  0  0  0  0  0  0
   17.8358   20.5624   21.7320 H   0  0  0  0  0  0  0  0  0  0  0  0
   19.9791   20.6853   21.6794 C   0  0  0  0  0  0  0  0  0  0  0  0
   20.0794   20.0407   20.7967 H   0  0  0  0  0  0  0  0  0  0  0  0
   19.8899   21.7078   21.2904 H   0  0  0  0  0  0  0  0  0  0  0  0
   21.2647   20.6053   22.5432 C   0  0  0  0  0  0  0  0  0  0  0  0
   22.0124   21.2951   22.1290 H   0  0  0  0  0  0  0  0  0  0  0  0
   21.0606   20.9729   23.5574 H   0  0  0  0  0  0  0  0  0  0  0  0
   18.5155   21.2008   23.5603 O   0  0  0  0  0  0  0  0  0  0  0  0
   18.6694   22.1153   23.2468 H   0  0  0  0  0  0  0  0  0  0  0  0
  1  2  1  0  0  0  0
  1  3  1  0  0  0  0
  1  4  1  0  0  0  0
  4  5  1  0  0  0  0
  4  6  1  0  0  0  0
  4  7  1  0  0  0  0
  7  8  1  0  0  0  0
  7  9  1  0  0  0  0
  7 10  1  0  0  0  0
 10 11  1  0  0  0  0
 10 12  1  0  0  0  0
 10 13  1  0  0  0  0
 13 14  1  0  0  0  0
 13 15  1  0  0  0  0
 15 16  1  0  0  0  0
 15 17  1  0  0  0  0
  1 18  1  0  0  0  0
 15 18  1  0  0  0  0
 18 19  1  0  0  0  0
 18 20  1  0  0  0  0
 13 21  1  0  0  0  0
 21 22  1  0  0  0  0
M  END
> <VConfSearch Rank>
436

> <Conf_Id>
95

> <Delta U+W>
-2.289

> <U+W>
4.134

> <U>
6.373

> <W>
-2.240

> <W(PB)>
-4.254

> <W(SA)>
2.015

> <Valence>
12.093

> <Coulomb>
-8.058

> <VdW>
2.339

> <VdW6>
-9.683

> <VdW12>
12.022

> <Bond>
0.268

> <Angle>
3.005

> <Pdih>
8.820

> <Idih>
0.000

> <Tether>
0.000

$$$$
VeraChem MOL file


 22 22  0  0  0  0  0  0  0  0999 V2000     
   18.3290   19.2321   21.9639 C   0  0  0  0  0  0  0  0  0  0  0  0
   17.7474   19.8306   21.2496 H   0  0  0  0  0  0  0  0  0  0  0  0
   17.7380   18.3233   22.1419 H   0  0  0  0  0  0  0  0  0  0  0  0
   18.4363   20.0271   23.2870 C   0  0  0  0  0  0  0  0  0  0  0  0
   18.5279   21.0987   23.0636 H   0  0  0  0  0  0  0  0  0  0  0  0
   17.4846   19.9201   23.8252 H   0  0  0  0  0  0  0  0  0  0  0  0
   19.5918   19.5950   24.2195 C   0  0  0  0  0  0  0  0  0  0  0  0
   19.7305   18.5055   24.1948 H   0  0  0  0  0  0  0  0  0  0  0  0
   19.3075   19.8429   25.2510 H   0  0  0  0  0  0  0  0  0  0  0  0
   20.9194   20.3301   23.9058 C   0  0  0  0  0  0  0  0  0  0  0  0
   20.7282   21.4097   23.8533 H   0  0  0  0  0  0  0  0  0  0  0  0
   21.6033   20.1967   24.7540 H   0  0  0  0  0  0  0  0  0  0  0  0
   21.6521   19.8944   22.6162 C   0  0  0  0  0  0  0  0  0  0  0  0
   22.4626   20.6190   22.4511 H   0  0  0  0  0  0  0  0  0  0  0  0
   20.7810   19.8876   21.3351 C   0  0  0  0  0  0  0  0  0  0  0  0
   20.3511   20.8837   21.1691 H   0  0  0  0  0  0  0  0  0  0  0  0
   21.4534   19.7061   20.4867 H   0  0  0  0  0  0  0  0  0  0  0  0
   19.6637   18.8124   21.3029 C   0  0  0  0  0  0  0  0  0  0  0  0
   19.4547   18.5524   20.2565 H   0  0  0  0  0  0  0  0  0  0  0  0
   20.0253   17.8845   21.7652 H   0  0  0  0  0  0  0  0  0  0  0  0
   22.2380   18.6116   22.8164 O   0  0  0  0  0  0  0  0  0  0  0  0
   22.7603   18.6665   23.6425 H   0  0  0  0  0  0  0  0  0  0  0  0
  1  2  1  0  0  0  0
  1  3  1  0  0  0  0
  1  4  1  0  0  0  0
  4  5  1  0  0  0  0
  4  6  1  0  0  0  0
  4  7  1  0  0  0  0
  7  8  1  0  0  0  0
  7  9  1  0  0  0  0
  7 10  1  0  0  0  0
 10 11  1  0  0  0  0
 10 12  1  0  0  0  0
 10 13  1  0  0  0  0
 13 14  1  0  0  0  0
 13 15  1  0  0  0  0
 15 16  1  0  0  0  0
 15 17  1  0  0  0  0
  1 18  1  0  0  0  0
 15 18  1  0  0  0  0
 18 19  1  0  0  0  0
 18 20  1  0  0  0  0
 13 21  1  0  0  0  0
 21 22  1  0  0  0  0
M  END
> <VConfSearch Rank>
437

> <Conf_Id>
41

> <Delta U+W>
-2.114

> <U+W>
4.310

> <U>
6.598

> <W>
-2.289

> <W(PB)>
-4.294

> <W(SA)>
2.005

> <Valence>
12.082

> <Coulomb>
-7.801

> <VdW>
2.317

> <VdW6>
-9.658

> <VdW12>
11.975

> <Bond>
0.267

> <Angle>
3.051

> <Pdih>
8.764

> <Idih>
0.000

> <Tether>
0.000

$$$$
VeraChem MOL file


 22 22  0  0  0  0  0  0  0  0999 V2000     
   21.2086   18.4705   23.3282 C   0  0  0  0  0  0  0  0  0  0  0  0
   22.0615   17.7995   23.4985 H   0  0  0  0  0  0  0  0  0  0  0  0
   20.8149   18.7264   24.3215 H   0  0  0  0  0  0  0  0  0  0  0  0
   20.1542   17.6970   22.5051 C   0  0  0  0  0  0  0  0  0  0  0  0
   20.5437   17.5057   21.4960 H   0  0  0  0  0  0  0  0  0  0  0  0
   20.0069   16.7096   22.9632 H   0  0  0  0  0  0  0  0  0  0  0  0
   18.7792   18.3928   22.4034 C   0  0  0  0  0  0  0  0  0  0  0  0
   18.2959   18.3929   23.3894 H   0  0  0  0  0  0  0  0  0  0  0  0
   18.1355   17.7776   21.7605 H   0  0  0  0  0  0  0  0  0  0  0  0
   18.8102   19.8343   21.8270 C   0  0  0  0  0  0  0  0  0  0  0  0
   19.3610   19.8488   20.8779 H   0  0  0  0  0  0  0  0  0  0  0  0
   17.7790   20.1135   21.5753 H   0  0  0  0  0  0  0  0  0  0  0  0
   19.3624   20.9319   22.7726 C   0  0  0  0  0  0  0  0  0  0  0  0
   19.0287   21.8970   22.3644 H   0  0  0  0  0  0  0  0  0  0  0  0
   20.9072   21.0197   22.8783 C   0  0  0  0  0  0  0  0  0  0  0  0
   21.2519   21.7871   22.1731 H   0  0  0  0  0  0  0  0  0  0  0  0
   21.1767   21.4000   23.8724 H   0  0  0  0  0  0  0  0  0  0  0  0
   21.7238   19.7329   22.6023 C   0  0  0  0  0  0  0  0  0  0  0  0
   21.7718   19.5464   21.5209 H   0  0  0  0  0  0  0  0  0  0  0  0
   22.7602   19.9195   22.9150 H   0  0  0  0  0  0  0  0  0  0  0  0
   18.7995   20.7971   24.0749 O   0  0  0  0  0  0  0  0  0  0  0  0
   19.1512   21.5353   24.6128 H   0  0  0  0  0  0  0  0  0  0  0  0
  1  2  1  0  0  0  0
  1  3  1  0  0  0  0
  1  4  1  0  0  0  0
  4  5  1  0  0  0  0
  4  6  1  0  0  0  0
  4  7  1  0  0  0  0
  7  8  1  0  0  0  0
  7  9  1  0  0  0  0
  7 10  1  0  0  0  0
 10 11  1  0  0  0  0
 10 12  1  0  0  0  0
 10 13  1  0  0  0  0
 13 14  1  0  0  0  0
 13 15  1  0  0  0  0
 15 16  1  0  0  0  0
 15 17  1  0  0  0  0
  1 18  1  0  0  0  0
 15 18  1  0  0  0  0
 18 19  1  0  0  0  0
 18 20  1  0  0  0  0
 13 21  1  0  0  0  0
 21 22  1  0  0  0  0
M  END
> <VConfSearch Rank>
438

> <Conf_Id>
104

> <Delta U+W>
-1.172

> <U+W>
5.252

> <U>
7.482

> <W>
-2.230

> <W(PB)>
-4.220

> <W(SA)>
1.990

> <Valence>
12.309

> <Coulomb>
-7.084

> <VdW>
2.258

> <VdW6>
-9.770

> <VdW12>
12.028

> <Bond>
0.284

> <Angle>
3.491

> <Pdih>
8.535

> <Idih>
0.000

> <Tether>
0.000

$$$$
VeraChem MOL file


 22 22  0  0  0  0  0  0  0  0999 V2000     
   19.5924   18.0401   22.3710 C   0  0  0  0  0  0  0  0  0  0  0  0
   18.5737   18.2111   22.7445 H   0  0  0  0  0  0  0  0  0  0  0  0
   19.6337   16.9816   22.0797 H   0  0  0  0  0  0  0  0  0  0  0  0
   20.6355   18.2636   23.4896 C   0  0  0  0  0  0  0  0  0  0  0  0
   20.6612   17.3700   24.1284 H   0  0  0  0  0  0  0  0  0  0  0  0
   21.6377   18.3240   23.0455 H   0  0  0  0  0  0  0  0  0  0  0  0
   20.3873   19.4901   24.4039 C   0  0  0  0  0  0  0  0  0  0  0  0
   21.3502   19.8101   24.8255 H   0  0  0  0  0  0  0  0  0  0  0  0
   19.7862   19.1659   25.2644 H   0  0  0  0  0  0  0  0  0  0  0  0
   19.6752   20.7165   23.7715 C   0  0  0  0  0  0  0  0  0  0  0  0
   18.5965   20.5192   23.7224 H   0  0  0  0  0  0  0  0  0  0  0  0
   19.7815   21.5632   24.4620 H   0  0  0  0  0  0  0  0  0  0  0  0
   20.1608   21.1707   22.3758 C   0  0  0  0  0  0  0  0  0  0  0  0
   19.8665   22.2231   22.2537 H   0  0  0  0  0  0  0  0  0  0  0  0
   19.4958   20.3843   21.2236 C   0  0  0  0  0  0  0  0  0  0  0  0
   18.4060   20.4739   21.3200 H   0  0  0  0  0  0  0  0  0  0  0  0
   19.7507   20.8813   20.2785 H   0  0  0  0  0  0  0  0  0  0  0  0
   19.8676   18.8855   21.1047 C   0  0  0  0  0  0  0  0  0  0  0  0
   19.2884   18.4604   20.2736 H   0  0  0  0  0  0  0  0  0  0  0  0
   20.9213   18.7853   20.8114 H   0  0  0  0  0  0  0  0  0  0  0  0
   21.5737   21.0731   22.2834 O   0  0  0  0  0  0  0  0  0  0  0  0
   21.7615   20.1346   22.4839 H   0  0  0  0  0  0  0  0  0  0  0  0
  1  2  1  0  0  0  0
  1  3  1  0  0  0  0
  1  4  1  0  0  0  0
  4  5  1  0  0  0  0
  4  6  1  0  0  0  0
  4  7  1  0  0  0  0
  7  8  1  0  0  0  0
  7  9  1  0  0  0  0
  7 10  1  0  0  0  0
 10 11  1  0  0  0  0
 10 12  1  0  0  0  0
 10 13  1  0  0  0  0
 13 14  1  0  0  0  0
 13 15  1  0  0  0  0
 15 16  1  0  0  0  0
 15 17  1  0  0  0  0
  1 18  1  0  0  0  0
 15 18  1  0  0  0  0
 18 19  1  0  0  0  0
 18 20  1  0  0  0  0
 13 21  1  0  0  0  0
 21 22  1  0  0  0  0
M  END
> <VConfSearch Rank>
439

> <Conf_Id>
99

> <Delta U+W>
-3.852

> <U+W>
2.572

> <U>
3.922

> <W>
-1.350

> <W(PB)>
-3.345

> <W(SA)>
1.995

> <Valence>
12.571

> <Coulomb>
-10.581

> <VdW>
1.932

> <VdW6>
-10.483

> <VdW12>
12.415

> <Bond>
0.268

> <Angle>
3.728

> <Pdih>
8.575

> <Idih>
0.000

> <Tether>
0.000

$$$$
VeraChem MOL file


 22 22  0  0  0  0  0  0  0  0999 V2000     
   21.5777   20.0456   22.1152 C   0  0  0  0  0  0  0  0  0  0  0  0
   22.2894   20.8006   21.7535 H   0  0  0  0  0  0  0  0  0  0  0  0
   22.1451   19.1054   22.1288 H   0  0  0  0  0  0  0  0  0  0  0  0
   20.4137   19.9548   21.0853 C   0  0  0  0  0  0  0  0  0  0  0  0
   20.6216   20.6704   20.2778 H   0  0  0  0  0  0  0  0  0  0  0  0
   20.4151   18.9704   20.5984 H   0  0  0  0  0  0  0  0  0  0  0  0
   18.9965   20.2605   21.6338 C   0  0  0  0  0  0  0  0  0  0  0  0
   18.3082   20.3533   20.7826 H   0  0  0  0  0  0  0  0  0  0  0  0
   18.9874   21.2512   22.1049 H   0  0  0  0  0  0  0  0  0  0  0  0
   18.4032   19.2090   22.6122 C   0  0  0  0  0  0  0  0  0  0  0  0
   17.6260   19.6993   23.2125 H   0  0  0  0  0  0  0  0  0  0  0  0
   17.8767   18.4459   22.0235 H   0  0  0  0  0  0  0  0  0  0  0  0
   19.3714   18.4728   23.5707 C   0  0  0  0  0  0  0  0  0  0  0  0
   18.7508   17.9573   24.3176 H   0  0  0  0  0  0  0  0  0  0  0  0
   20.3699   19.3620   24.3520 C   0  0  0  0  0  0  0  0  0  0  0  0
   19.8253   19.8702   25.1581 H   0  0  0  0  0  0  0  0  0  0  0  0
   21.0809   18.6952   24.8578 H   0  0  0  0  0  0  0  0  0  0  0  0
   21.1758   20.4303   23.5620 C   0  0  0  0  0  0  0  0  0  0  0  0
   20.6244   21.3787   23.5534 H   0  0  0  0  0  0  0  0  0  0  0  0
   22.0909   20.6482   24.1294 H   0  0  0  0  0  0  0  0  0  0  0  0
   20.0818   17.4744   22.8555 O   0  0  0  0  0  0  0  0  0  0  0  0
   20.6142   17.9802   22.2092 H   0  0  0  0  0  0  0  0  0  0  0  0
  1  2  1  0  0  0  0
  1  3  1  0  0  0  0
  1  4  1  0  0  0  0
  4  5  1  0  0  0  0
  4  6  1  0  0  0  0
  4  7  1  0  0  0  0
  7  8  1  0  0  0  0
  7  9  1  0  0  0  0
  7 10  1  0  0  0  0
 10 11  1  0  0  0  0
 10 12  1  0  0  0  0
 10 13  1  0  0  0  0
 13 14  1  0  0  0  0
 13 15  1  0  0  0  0
 15 16  1  0  0  0  0
 15 17  1  0  0  0  0
  1 18  1  0  0  0  0
 15 18  1  0  0  0  0
 18 19  1  0  0  0  0
 18 20  1  0  0  0  0
 13 21  1  0  0  0  0
 21 22  1  0  0  0  0
M  END
> <VConfSearch Rank>
440

> <Conf_Id>
98

> <Delta U+W>
0.930

> <U+W>
7.353

> <U>
8.455

> <W>
-1.102

> <W(PB)>
-3.101

> <W(SA)>
2.000

> <Valence>
15.601

> <Coulomb>
-10.573

> <VdW>
3.427

> <VdW6>
-11.360

> <VdW12>
14.787

> <Bond>
0.471

> <Angle>
5.445

> <Pdih>
9.685

> <Idih>
0.000

> <Tether>
0.000

$$$$
VeraChem MOL file


 22 22  0  0  0  0  0  0  0  0999 V2000     
   20.2868   20.9698   23.5601 C   0  0  0  0  0  0  0  0  0  0  0  0
   19.2326   20.9170   23.8612 H   0  0  0  0  0  0  0  0  0  0  0  0
   20.6938   21.8368   24.0979 H   0  0  0  0  0  0  0  0  0  0  0  0
   20.3837   21.2436   22.0377 C   0  0  0  0  0  0  0  0  0  0  0  0
   19.8676   22.1928   21.8389 H   0  0  0  0  0  0  0  0  0  0  0  0
   21.4332   21.4120   21.7604 H   0  0  0  0  0  0  0  0  0  0  0  0
   19.7769   20.1589   21.1049 C   0  0  0  0  0  0  0  0  0  0  0  0
   20.5779   19.5541   20.6602 H   0  0  0  0  0  0  0  0  0  0  0  0
   19.3003   20.6658   20.2549 H   0  0  0  0  0  0  0  0  0  0  0  0
   18.7345   19.2248   21.7747 C   0  0  0  0  0  0  0  0  0  0  0  0
   17.9709   19.8356   22.2720 H   0  0  0  0  0  0  0  0  0  0  0  0
   18.1942   18.6876   20.9835 H   0  0  0  0  0  0  0  0  0  0  0  0
   19.3020   18.1896   22.7897 C   0  0  0  0  0  0  0  0  0  0  0  0
   18.6652   18.2097   23.6859 H   0  0  0  0  0  0  0  0  0  0  0  0
   20.7693   18.4118   23.2345 C   0  0  0  0  0  0  0  0  0  0  0  0
   21.0883   17.5582   23.8466 H   0  0  0  0  0  0  0  0  0  0  0  0
   21.4274   18.3956   22.3575 H   0  0  0  0  0  0  0  0  0  0  0  0
   21.0277   19.7034   24.0500 C   0  0  0  0  0  0  0  0  0  0  0  0
   20.7449   19.5255   25.0965 H   0  0  0  0  0  0  0  0  0  0  0  0
   22.1085   19.8991   24.0590 H   0  0  0  0  0  0  0  0  0  0  0  0
   19.2257   16.8951   22.2034 O   0  0  0  0  0  0  0  0  0  0  0  0
   19.5339   16.2589   22.8819 H   0  0  0  0  0  0  0  0  0  0  0  0
  1  2  1  0  0  0  0
  1  3  1  0  0  0  0
  1  4  1  0  0  0  0
  4  5  1  0  0  0  0
  4  6  1  0  0  0  0
  4  7  1  0  0  0  0
  7  8  1  0  0  0  0
  7  9  1  0  0  0  0
  7 10  1  0  0  0  0
 10 11  1  0  0  0  0
 10 12  1  0  0  0  0
 10 13  1  0  0  0  0
 13 14  1  0  0  0  0
 13 15  1  0  0  0  0
 15 16  1  0  0  0  0
 15 17  1  0  0  0  0
  1 18  1  0  0  0  0
 15 18  1  0  0  0  0
 18 19  1  0  0  0  0
 18 20  1  0  0  0  0
 13 21  1  0  0  0  0
 21 22  1  0  0  0  0
M  END
> <VConfSearch Rank>
441

> <Conf_Id>
141

> <Delta U+W>
0.000

> <U+W>
6.423

> <U>
8.781

> <W>
-2.358

> <W(PB)>
-4.373

> <W(SA)>
2.015

> <Valence>
13.328

> <Coulomb>
-8.387

> <VdW>
3.840

> <VdW6>
-9.744

> <VdW12>
13.584

> <Bond>
0.436

> <Angle>
3.478

> <Pdih>
9.415

> <Idih>
0.000

> <Tether>
0.000

$$$$
VeraChem MOL file


 22 22  0  0  0  0  0  0  0  0999 V2000     
   20.4932   20.3501   21.1576 C   0  0  0  0  0  0  0  0  0  0  0  0
   19.9443   21.2569   21.4456 H   0  0  0  0  0  0  0  0  0  0  0  0
   20.9852   20.5830   20.2034 H   0  0  0  0  0  0  0  0  0  0  0  0
   19.5222   19.1705   20.9096 C   0  0  0  0  0  0  0  0  0  0  0  0
   18.9365   19.3838   20.0050 H   0  0  0  0  0  0  0  0  0  0  0  0
   20.1004   18.2641   20.6839 H   0  0  0  0  0  0  0  0  0  0  0  0
   18.5366   18.8742   22.0634 C   0  0  0  0  0  0  0  0  0  0  0  0
   17.9544   17.9819   21.7956 H   0  0  0  0  0  0  0  0  0  0  0  0
   17.8094   19.6939   22.1417 H   0  0  0  0  0  0  0  0  0  0  0  0
   19.1973   18.6374   23.4434 C   0  0  0  0  0  0  0  0  0  0  0  0
   18.4329   18.2160   24.1095 H   0  0  0  0  0  0  0  0  0  0  0  0
   19.9886   17.8802   23.3691 H   0  0  0  0  0  0  0  0  0  0  0  0
   19.7489   19.9369   24.0716 C   0  0  0  0  0  0  0  0  0  0  0  0
   19.1012   20.7701   23.7633 H   0  0  0  0  0  0  0  0  0  0  0  0
   21.2020   20.2778   23.6693 C   0  0  0  0  0  0  0  0  0  0  0  0
   21.3680   21.3390   23.8956 H   0  0  0  0  0  0  0  0  0  0  0  0
   21.8971   19.7210   24.3120 H   0  0  0  0  0  0  0  0  0  0  0  0
   21.5927   20.0169   22.1931 C   0  0  0  0  0  0  0  0  0  0  0  0
   22.4872   20.6137   21.9682 H   0  0  0  0  0  0  0  0  0  0  0  0
   21.9009   18.9693   22.0742 H   0  0  0  0  0  0  0  0  0  0  0  0
   19.7001   19.8180   25.4881 O   0  0  0  0  0  0  0  0  0  0  0  0
   18.7600   19.6779   25.7274 H   0  0  0  0  0  0  0  0  0  0  0  0
  1  2  1  0  0  0  0
  1  3  1  0  0  0  0
  1  4  1  0  0  0  0
  4  5  1  0  0  0  0
  4  6  1  0  0  0  0
  4  7  1  0  0  0  0
  7  8  1  0  0  0  0
  7  9  1  0  0  0  0
  7 10  1  0  0  0  0
 10 11  1  0  0  0  0
 10 12  1  0  0  0  0
 10 13  1  0  0  0  0
 13 14  1  0  0  0  0
 13 15  1  0  0  0  0
 15 16  1  0  0  0  0
 15 17  1  0  0  0  0
  1 18  1  0  0  0  0
 15 18  1  0  0  0  0
 18 19  1  0  0  0  0
 18 20  1  0  0  0  0
 13 21  1  0  0  0  0
 21 22  1  0  0  0  0
M  END
> <VConfSearch Rank>
442

> <Conf_Id>
144

> <Delta U+W>
-3.291

> <U+W>
3.132

> <U>
5.411

> <W>
-2.279

> <W(PB)>
-4.300

> <W(SA)>
2.021

> <Valence>
11.909

> <Coulomb>
-8.733

> <VdW>
2.236

> <VdW6>
-8.936

> <VdW12>
11.172

> <Bond>
0.223

> <Angle>
2.457

> <Pdih>
9.228

> <Idih>
0.000

> <Tether>
0.000

$$$$
VeraChem MOL file


 22 22  0  0  0  0  0  0  0  0999 V2000     
   18.9894   18.9910   23.9890 C   0  0  0  0  0  0  0  0  0  0  0  0
   18.5840   18.4143   24.8316 H   0  0  0  0  0  0  0  0  0  0  0  0
   18.3475   19.8769   23.8903 H   0  0  0  0  0  0  0  0  0  0  0  0
   18.9083   18.1078   22.7219 C   0  0  0  0  0  0  0  0  0  0  0  0
   19.7712   17.4285   22.6939 H   0  0  0  0  0  0  0  0  0  0  0  0
   18.0261   17.4573   22.7980 H   0  0  0  0  0  0  0  0  0  0  0  0
   18.8145   18.8837   21.3859 C   0  0  0  0  0  0  0  0  0  0  0  0
   17.7665   19.1599   21.2058 H   0  0  0  0  0  0  0  0  0  0  0  0
   19.0861   18.1977   20.5718 H   0  0  0  0  0  0  0  0  0  0  0  0
   19.6768   20.1651   21.2739 C   0  0  0  0  0  0  0  0  0  0  0  0
   19.7741   20.4124   20.2082 H   0  0  0  0  0  0  0  0  0  0  0  0
   19.1341   21.0054   21.7260 H   0  0  0  0  0  0  0  0  0  0  0  0
   21.0813   20.0628   21.9098 C   0  0  0  0  0  0  0  0  0  0  0  0
   21.4676   19.0409   21.7870 H   0  0  0  0  0  0  0  0  0  0  0  0
   21.0823   20.4410   23.4084 C   0  0  0  0  0  0  0  0  0  0  0  0
   22.1206   20.5948   23.7316 H   0  0  0  0  0  0  0  0  0  0  0  0
   20.5766   21.4060   23.5431 H   0  0  0  0  0  0  0  0  0  0  0  0
   20.4389   19.3955   24.3501 C   0  0  0  0  0  0  0  0  0  0  0  0
   21.0708   18.4975   24.3830 H   0  0  0  0  0  0  0  0  0  0  0  0
   20.4449   19.8030   25.3703 H   0  0  0  0  0  0  0  0  0  0  0  0
   21.9455   20.9647   21.2317 O   0  0  0  0  0  0  0  0  0  0  0  0
   21.5690   21.8594   21.3621 H   0  0  0  0  0  0  0  0  0  0  0  0
  1  2  1  0  0  0  0
  1  3  1  0  0  0  0
  1  4  1  0  0  0  0
  4  5  1  0  0  0  0
  4  6  1  0  0  0  0
  4  7  1  0  0  0  0
  7  8  1  0  0  0  0
  7  9  1  0  0  0  0
  7 10  1  0  0  0  0
 10 11  1  0  0  0  0
 10 12  1  0  0  0  0
 10 13  1  0  0  0  0
 13 14  1  0  0  0  0
 13 15  1  0  0  0  0
 15 16  1  0  0  0  0
 15 17  1  0  0  0  0
  1 18  1  0  0  0  0
 15 18  1  0  0  0  0
 18 19  1  0  0  0  0
 18 20  1  0  0  0  0
 13 21  1  0  0  0  0
 21 22  1  0  0  0  0
M  END
> <VConfSearch Rank>
443

> <Conf_Id>
76

> <Delta U+W>
-3.175

> <U+W>
3.248

> <U>
5.336

> <W>
-2.088

> <W(PB)>
-4.098

> <W(SA)>
2.010

> <Valence>
12.390

> <Coulomb>
-9.270

> <VdW>
2.216

> <VdW6>
-8.967

> <VdW12>
11.183

> <Bond>
0.218

> <Angle>
2.426

> <Pdih>
9.745

> <Idih>
0.000

> <Tether>
0.000

$$$$
VeraChem MOL file


 22 22  0  0  0  0  0  0  0  0999 V2000     
   21.2709   19.3715   24.1151 C   0  0  0  0  0  0  0  0  0  0  0  0
   21.0723   19.5572   25.1795 H   0  0  0  0  0  0  0  0  0  0  0  0
   22.2944   18.9753   24.0675 H   0  0  0  0  0  0  0  0  0  0  0  0
   21.2229   20.7270   23.3702 C   0  0  0  0  0  0  0  0  0  0  0  0
   20.4423   21.3609   23.8123 H   0  0  0  0  0  0  0  0  0  0  0  0
   22.1692   21.2519   23.5592 H   0  0  0  0  0  0  0  0  0  0  0  0
   21.0006   20.6269   21.8430 C   0  0  0  0  0  0  0  0  0  0  0  0
   21.5303   19.7604   21.4241 H   0  0  0  0  0  0  0  0  0  0  0  0
   21.4483   21.5135   21.3743 H   0  0  0  0  0  0  0  0  0  0  0  0
   19.5001   20.5955   21.4559 C   0  0  0  0  0  0  0  0  0  0  0  0
   18.9835   21.4305   21.9463 H   0  0  0  0  0  0  0  0  0  0  0  0
   19.4124   20.7866   20.3783 H   0  0  0  0  0  0  0  0  0  0  0  0
   18.7407   19.2866   21.7708 C   0  0  0  0  0  0  0  0  0  0  0  0
   17.6729   19.4927   21.6084 H   0  0  0  0  0  0  0  0  0  0  0  0
   18.8895   18.7716   23.2245 C   0  0  0  0  0  0  0  0  0  0  0  0
   18.5627   19.5471   23.9292 H   0  0  0  0  0  0  0  0  0  0  0  0
   18.1865   17.9387   23.3542 H   0  0  0  0  0  0  0  0  0  0  0  0
   20.3079   18.2730   23.6050 C   0  0  0  0  0  0  0  0  0  0  0  0
   20.2160   17.5131   24.3928 H   0  0  0  0  0  0  0  0  0  0  0  0
   20.7662   17.7541   22.7528 H   0  0  0  0  0  0  0  0  0  0  0  0
   19.1426   18.2771   20.8502 O   0  0  0  0  0  0  0  0  0  0  0  0
   18.6798   17.4567   21.1164 H   0  0  0  0  0  0  0  0  0  0  0  0
  1  2  1  0  0  0  0
  1  3  1  0  0  0  0
  1  4  1  0  0  0  0
  4  5  1  0  0  0  0
  4  6  1  0  0  0  0
  4  7  1  0  0  0  0
  7  8  1  0  0  0  0
  7  9  1  0  0  0  0
  7 10  1  0  0  0  0
 10 11  1  0  0  0  0
 10 12  1  0  0  0  0
 10 13  1  0  0  0  0
 13 14  1  0  0  0  0
 13 15  1  0  0  0  0
 15 16  1  0  0  0  0
 15 17  1  0  0  0  0
  1 18  1  0  0  0  0
 15 18  1  0  0  0  0
 18 19  1  0  0  0  0
 18 20  1  0  0  0  0
 13 21  1  0  0  0  0
 21 22  1  0  0  0  0
M  END
> <VConfSearch Rank>
444

> <Conf_Id>
95

> <Delta U+W>
-2.289

> <U+W>
4.134

> <U>
6.373

> <W>
-2.240

> <W(PB)>
-4.254

> <W(SA)>
2.015

> <Valence>
12.093

> <Coulomb>
-8.058

> <VdW>
2.339

> <VdW6>
-9.683

> <VdW12>
12.022

> <Bond>
0.268

> <Angle>
3.005

> <Pdih>
8.820

> <Idih>
0.000

> <Tether>
0.000

$$$$
VeraChem MOL file


 22 22  0  0  0  0  0  0  0  0999 V2000     
   21.3126   19.6969   21.2782 C   0  0  0  0  0  0  0  0  0  0  0  0
   21.8655   18.8628   20.8249 H   0  0  0  0  0  0  0  0  0  0  0  0
   21.6070   20.5916   20.7127 H   0  0  0  0  0  0  0  0  0  0  0  0
   21.7860   19.8520   22.7432 C   0  0  0  0  0  0  0  0  0  0  0  0
   21.9905   18.8602   23.1685 H   0  0  0  0  0  0  0  0  0  0  0  0
   22.7534   20.3723   22.7338 H   0  0  0  0  0  0  0  0  0  0  0  0
   20.8126   20.6184   23.6687 C   0  0  0  0  0  0  0  0  0  0  0  0
   20.3316   21.4481   23.1329 H   0  0  0  0  0  0  0  0  0  0  0  0
   21.4001   21.0764   24.4758 H   0  0  0  0  0  0  0  0  0  0  0  0
   19.7550   19.6927   24.3213 C   0  0  0  0  0  0  0  0  0  0  0  0
   20.2625   18.8305   24.7731 H   0  0  0  0  0  0  0  0  0  0  0  0
   19.2892   20.2278   25.1589 H   0  0  0  0  0  0  0  0  0  0  0  0
   18.6345   19.1750   23.3906 C   0  0  0  0  0  0  0  0  0  0  0  0
   18.0833   18.4078   23.9533 H   0  0  0  0  0  0  0  0  0  0  0  0
   19.1232   18.5122   22.0783 C   0  0  0  0  0  0  0  0  0  0  0  0
   19.7955   17.6759   22.3088 H   0  0  0  0  0  0  0  0  0  0  0  0
   18.2451   18.0662   21.5937 H   0  0  0  0  0  0  0  0  0  0  0  0
   19.7964   19.4738   21.0646 C   0  0  0  0  0  0  0  0  0  0  0  0
   19.6536   19.0744   20.0515 H   0  0  0  0  0  0  0  0  0  0  0  0
   19.2797   20.4426   21.0695 H   0  0  0  0  0  0  0  0  0  0  0  0
   17.7358   20.2401   23.0957 O   0  0  0  0  0  0  0  0  0  0  0  0
   17.4730   20.6321   23.9533 H   0  0  0  0  0  0  0  0  0  0  0  0
  1  2  1  0  0  0  0
  1  3  1  0  0  0  0
  1  4  1  0  0  0  0
  4  5  1  0  0  0  0
  4  6  1  0  0  0  0
  4  7  1  0  0  0  0
  7  8  1  0  0  0  0
  7  9  1  0  0  0  0
  7 10  1  0  0  0  0
 10 11  1  0  0  0  0
 10 12  1  0  0  0  0
 10 13  1  0  0  0  0
 13 14  1  0  0  0  0
 13 15  1  0  0  0  0
 15 16  1  0  0  0  0
 15 17  1  0  0  0  0
  1 18  1  0  0  0  0
 15 18  1  0  0  0  0
 18 19  1  0  0  0  0
 18 20  1  0  0  0  0
 13 21  1  0  0  0  0
 21 22  1  0  0  0  0
M  END
> <VConfSearch Rank>
445

> <Conf_Id>
41

> <Delta U+W>
-2.114

> <U+W>
4.310

> <U>
6.598

> <W>
-2.289

> <W(PB)>
-4.294

> <W(SA)>
2.005

> <Valence>
12.082

> <Coulomb>
-7.801

> <VdW>
2.317

> <VdW6>
-9.658

> <VdW12>
11.975

> <Bond>
0.267

> <Angle>
3.051

> <Pdih>
8.764

> <Idih>
0.000

> <Tether>
0.000

$$$$
VeraChem MOL file


 22 22  0  0  0  0  0  0  0  0999 V2000     
   20.7208   20.8948   21.9857 C   0  0  0  0  0  0  0  0  0  0  0  0
   21.2950   21.6149   21.3870 H   0  0  0  0  0  0  0  0  0  0  0  0
   19.7959   21.4086   22.2817 H   0  0  0  0  0  0  0  0  0  0  0  0
   21.5653   20.5310   23.2274 C   0  0  0  0  0  0  0  0  0  0  0  0
   22.4530   19.9645   22.9151 H   0  0  0  0  0  0  0  0  0  0  0  0
   21.9433   21.4585   23.6785 H   0  0  0  0  0  0  0  0  0  0  0  0
   20.8050   19.7397   24.3142 C   0  0  0  0  0  0  0  0  0  0  0  0
   20.0479   20.3876   24.7757 H   0  0  0  0  0  0  0  0  0  0  0  0
   21.5151   19.4996   25.1169 H   0  0  0  0  0  0  0  0  0  0  0  0
   20.1494   18.4178   23.8307 C   0  0  0  0  0  0  0  0  0  0  0  0
   20.8878   17.8029   23.3008 H   0  0  0  0  0  0  0  0  0  0  0  0
   19.8684   17.8414   24.7215 H   0  0  0  0  0  0  0  0  0  0  0  0
   18.8727   18.5705   22.9643 C   0  0  0  0  0  0  0  0  0  0  0  0
   18.3645   17.5953   22.9770 H   0  0  0  0  0  0  0  0  0  0  0  0
   19.1059   18.9154   21.4704 C   0  0  0  0  0  0  0  0  0  0  0  0
   19.0941   17.9773   20.9003 H   0  0  0  0  0  0  0  0  0  0  0  0
   18.2476   19.4898   21.0976 H   0  0  0  0  0  0  0  0  0  0  0  0
   20.4062   19.6702   21.0983 C   0  0  0  0  0  0  0  0  0  0  0  0
   21.2568   18.9754   21.1084 H   0  0  0  0  0  0  0  0  0  0  0  0
   20.3130   20.0061   20.0566 H   0  0  0  0  0  0  0  0  0  0  0  0
   17.9879   19.5251   23.5445 O   0  0  0  0  0  0  0  0  0  0  0  0
   17.1886   19.5493   22.9802 H   0  0  0  0  0  0  0  0  0  0  0  0
  1  2  1  0  0  0  0
  1  3  1  0  0  0  0
  1  4  1  0  0  0  0
  4  5  1  0  0  0  0
  4  6  1  0  0  0  0
  4  7  1  0  0  0  0
  7  8  1  0  0  0  0
  7  9  1  0  0  0  0
  7 10  1  0  0  0  0
 10 11  1  0  0  0  0
 10 12  1  0  0  0  0
 10 13  1  0  0  0  0
 13 14  1  0  0  0  0
 13 15  1  0  0  0  0
 15 16  1  0  0  0  0
 15 17  1  0  0  0  0
  1 18  1  0  0  0  0
 15 18  1  0  0  0  0
 18 19  1  0  0  0  0
 18 20  1  0  0  0  0
 13 21  1  0  0  0  0
 21 22  1  0  0  0  0
M  END
> <VConfSearch Rank>
446

> <Conf_Id>
104

> <Delta U+W>
-1.172

> <U+W>
5.252

> <U>
7.482

> <W>
-2.230

> <W(PB)>
-4.220

> <W(SA)>
1.990

> <Valence>
12.309

> <Coulomb>
-7.084

> <VdW>
2.258

> <VdW6>
-9.770

> <VdW12>
12.028

> <Bond>
0.284

> <Angle>
3.491

> <Pdih>
8.535

> <Idih>
0.000

> <Tether>
0.000

$$$$
VeraChem MOL file


 22 22  0  0  0  0  0  0  0  0999 V2000     
   18.4865   19.3366   23.0627 C   0  0  0  0  0  0  0  0  0  0  0  0
   18.1369   20.1964   22.4753 H   0  0  0  0  0  0  0  0  0  0  0  0
   17.5907   18.9062   23.5309 H   0  0  0  0  0  0  0  0  0  0  0  0
   19.4388   19.7903   24.1926 C   0  0  0  0  0  0  0  0  0  0  0  0
   18.8354   20.1818   25.0232 H   0  0  0  0  0  0  0  0  0  0  0  0
   19.9562   18.9145   24.6058 H   0  0  0  0  0  0  0  0  0  0  0  0
   20.4704   20.8798   23.8044 C   0  0  0  0  0  0  0  0  0  0  0  0
   21.3334   20.7979   24.4795 H   0  0  0  0  0  0  0  0  0  0  0  0
   20.0304   21.8647   24.0126 H   0  0  0  0  0  0  0  0  0  0  0  0
   20.9725   20.8929   22.3351 C   0  0  0  0  0  0  0  0  0  0  0  0
   20.2131   21.3682   21.7007 H   0  0  0  0  0  0  0  0  0  0  0  0
   21.8468   21.5545   22.2818 H   0  0  0  0  0  0  0  0  0  0  0  0
   21.3603   19.5328   21.7109 C   0  0  0  0  0  0  0  0  0  0  0  0
   22.0391   19.7400   20.8712 H   0  0  0  0  0  0  0  0  0  0  0  0
   20.1477   18.7724   21.1280 C   0  0  0  0  0  0  0  0  0  0  0  0
   19.6432   19.4207   20.3998 H   0  0  0  0  0  0  0  0  0  0  0  0
   20.5249   17.9179   20.5511 H   0  0  0  0  0  0  0  0  0  0  0  0
   19.1027   18.2529   22.1462 C   0  0  0  0  0  0  0  0  0  0  0  0
   18.2901   17.7768   21.5808 H   0  0  0  0  0  0  0  0  0  0  0  0
   19.5437   17.4543   22.7579 H   0  0  0  0  0  0  0  0  0  0  0  0
   22.0353   18.7227   22.6607 O   0  0  0  0  0  0  0  0  0  0  0  0
   21.4055   18.6534   23.4056 H   0  0  0  0  0  0  0  0  0  0  0  0
  1  2  1  0  0  0  0
  1  3  1  0  0  0  0
  1  4  1  0  0  0  0
  4  5  1  0  0  0  0
  4  6  1  0  0  0  0
  4  7  1  0  0  0  0
  7  8  1  0  0  0  0
  7  9  1  0  0  0  0
  7 10  1  0  0  0  0
 10 11  1  0  0  0  0
 10 12  1  0  0  0  0
 10 13  1  0  0  0  0
 13 14  1  0  0  0  0
 13 15  1  0  0  0  0
 15 16  1  0  0  0  0
 15 17  1  0  0  0  0
  1 18  1  0  0  0  0
 15 18  1  0  0  0  0
 18 19  1  0  0  0  0
 18 20  1  0  0  0  0
 13 21  1  0  0  0  0
 21 22  1  0  0  0  0
M  END
> <VConfSearch Rank>
447

> <Conf_Id>
99

> <Delta U+W>
-3.852

> <U+W>
2.572

> <U>
3.922

> <W>
-1.350

> <W(PB)>
-3.345

> <W(SA)>
1.995

> <Valence>
12.571

> <Coulomb>
-10.581

> <VdW>
1.932

> <VdW6>
-10.483

> <VdW12>
12.415

> <Bond>
0.268

> <Angle>
3.728

> <Pdih>
8.575

> <Idih>
0.000

> <Tether>
0.000

$$$$
VeraChem MOL file


 22 22  0  0  0  0  0  0  0  0999 V2000     
   19.6597   18.3022   23.6478 C   0  0  0  0  0  0  0  0  0  0  0  0
   18.9539   17.5294   23.9822 H   0  0  0  0  0  0  0  0  0  0  0  0
   20.5645   18.1381   24.2482 H   0  0  0  0  0  0  0  0  0  0  0  0
   19.0398   19.6911   23.9803 C   0  0  0  0  0  0  0  0  0  0  0  0
   18.0657   19.5194   24.4588 H   0  0  0  0  0  0  0  0  0  0  0  0
   19.6433   20.2022   24.7423 H   0  0  0  0  0  0  0  0  0  0  0  0
   18.8133   20.6396   22.7754 C   0  0  0  0  0  0  0  0  0  0  0  0
   18.2026   21.4881   23.1125 H   0  0  0  0  0  0  0  0  0  0  0  0
   18.1954   20.1380   22.0203 H   0  0  0  0  0  0  0  0  0  0  0  0
   20.0950   21.2118   22.1086 C   0  0  0  0  0  0  0  0  0  0  0  0
   19.8418   21.5179   21.0854 H   0  0  0  0  0  0  0  0  0  0  0  0
   20.3721   22.1387   22.6284 H   0  0  0  0  0  0  0  0  0  0  0  0
   21.3551   20.3134   22.0537 C   0  0  0  0  0  0  0  0  0  0  0  0
   22.0602   20.7941   21.3604 H   0  0  0  0  0  0  0  0  0  0  0  0
   21.1427   18.8655   21.5471 C   0  0  0  0  0  0  0  0  0  0  0  0
   21.0136   18.8942   20.4575 H   0  0  0  0  0  0  0  0  0  0  0  0
   22.0788   18.3160   21.7138 H   0  0  0  0  0  0  0  0  0  0  0  0
   19.9742   18.0393   22.1529 C   0  0  0  0  0  0  0  0  0  0  0  0
   19.0676   18.1849   21.5525 H   0  0  0  0  0  0  0  0  0  0  0  0
   20.2173   16.9749   22.0320 H   0  0  0  0  0  0  0  0  0  0  0  0
   21.9757   20.2851   23.3294 O   0  0  0  0  0  0  0  0  0  0  0  0
   21.3138   19.8518   23.9047 H   0  0  0  0  0  0  0  0  0  0  0  0
  1  2  1  0  0  0  0
  1  3  1  0  0  0  0
  1  4  1  0  0  0  0
  4  5  1  0  0  0  0
  4  6  1  0  0  0  0
  4  7  1  0  0  0  0
  7  8  1  0  0  0  0
  7  9  1  0  0  0  0
  7 10  1  0  0  0  0
 10 11  1  0  0  0  0
 10 12  1  0  0  0  0
 10 13  1  0  0  0  0
 13 14  1  0  0  0  0
 13 15  1  0  0  0  0
 15 16  1  0  0  0  0
 15 17  1  0  0  0  0
  1 18  1  0  0  0  0
 15 18  1  0  0  0  0
 18 19  1  0  0  0  0
 18 20  1  0  0  0  0
 13 21  1  0  0  0  0
 21 22  1  0  0  0  0
M  END
> <VConfSearch Rank>
448

> <Conf_Id>
98

> <Delta U+W>
0.930

> <U+W>
7.353

> <U>
8.455

> <W>
-1.102

> <W(PB)>
-3.101

> <W(SA)>
2.000

> <Valence>
15.601

> <Coulomb>
-10.573

> <VdW>
3.427

> <VdW6>
-11.360

> <VdW12>
14.787

> <Bond>
0.471

> <Angle>
5.445

> <Pdih>
9.685

> <Idih>
0.000

> <Tether>
0.000

$$$$
VeraChem MOL file


 22 22  0  0  0  0  0  0  0  0999 V2000     
   20.1619   20.7731   23.8371 C   0  0  0  0  0  0  0  0  0  0  0  0
   20.2764   21.4807   23.0058 H   0  0  0  0  0  0  0  0  0  0  0  0
   20.1730   21.3938   24.7434 H   0  0  0  0  0  0  0  0  0  0  0  0
   21.3790   19.8146   23.8807 C   0  0  0  0  0  0  0  0  0  0  0  0
   22.2802   20.4301   24.0065 H   0  0  0  0  0  0  0  0  0  0  0  0
   21.3202   19.1862   24.7797 H   0  0  0  0  0  0  0  0  0  0  0  0
   21.5833   18.9071   22.6359 C   0  0  0  0  0  0  0  0  0  0  0  0
   21.2535   17.8839   22.8579 H   0  0  0  0  0  0  0  0  0  0  0  0
   22.6621   18.8218   22.4476 H   0  0  0  0  0  0  0  0  0  0  0  0
   20.8902   19.4041   21.3396 C   0  0  0  0  0  0  0  0  0  0  0  0
   21.1736   20.4482   21.1576 H   0  0  0  0  0  0  0  0  0  0  0  0
   21.3075   18.8469   20.4901 H   0  0  0  0  0  0  0  0  0  0  0  0
   19.3384   19.2826   21.3086 C   0  0  0  0  0  0  0  0  0  0  0  0
   18.9318   20.2312   20.9291 H   0  0  0  0  0  0  0  0  0  0  0  0
   18.6563   18.9729   22.6648 C   0  0  0  0  0  0  0  0  0  0  0  0
   17.5875   18.7916   22.4919 H   0  0  0  0  0  0  0  0  0  0  0  0
   19.0444   18.0290   23.0660 H   0  0  0  0  0  0  0  0  0  0  0  0
   18.7818   20.0812   23.7398 C   0  0  0  0  0  0  0  0  0  0  0  0
   18.0256   20.8536   23.5440 H   0  0  0  0  0  0  0  0  0  0  0  0
   18.5255   19.6494   24.7168 H   0  0  0  0  0  0  0  0  0  0  0  0
   18.9859   18.2402   20.4062 O   0  0  0  0  0  0  0  0  0  0  0  0
   18.0072   18.2236   20.3620 H   0  0  0  0  0  0  0  0  0  0  0  0
  1  2  1  0  0  0  0
  1  3  1  0  0  0  0
  1  4  1  0  0  0  0
  4  5  1  0  0  0  0
  4  6  1  0  0  0  0
  4  7  1  0  0  0  0
  7  8  1  0  0  0  0
  7  9  1  0  0  0  0
  7 10  1  0  0  0  0
 10 11  1  0  0  0  0
 10 12  1  0  0  0  0
 10 13  1  0  0  0  0
 13 14  1  0  0  0  0
 13 15  1  0  0  0  0
 15 16  1  0  0  0  0
 15 17  1  0  0  0  0
  1 18  1  0  0  0  0
 15 18  1  0  0  0  0
 18 19  1  0  0  0  0
 18 20  1  0  0  0  0
 13 21  1  0  0  0  0
 21 22  1  0  0  0  0
M  END
> <VConfSearch Rank>
449

> <Conf_Id>
141

> <Delta U+W>
0.000

> <U+W>
6.423

> <U>
8.781

> <W>
-2.358

> <W(PB)>
-4.373

> <W(SA)>
2.015

> <Valence>
13.328

> <Coulomb>
-8.387

> <VdW>
3.840

> <VdW6>
-9.744

> <VdW12>
13.584

> <Bond>
0.436

> <Angle>
3.478

> <Pdih>
9.415

> <Idih>
0.000

> <Tether>
0.000

$$$$
VeraChem MOL file


 22 22  0  0  0  0  0  0  0  0999 V2000     
   18.2531   19.6629   22.4176 C   0  0  0  0  0  0  0  0  0  0  0  0
   18.2406   20.6537   22.8916 H   0  0  0  0  0  0  0  0  0  0  0  0
   17.2197   19.4642   22.1021 H   0  0  0  0  0  0  0  0  0  0  0  0
   18.6523   18.5673   23.4354 C   0  0  0  0  0  0  0  0  0  0  0  0
   17.8434   18.4618   24.1712 H   0  0  0  0  0  0  0  0  0  0  0  0
   18.7162   17.5985   22.9212 H   0  0  0  0  0  0  0  0  0  0  0  0
   19.9698   18.8275   24.2013 C   0  0  0  0  0  0  0  0  0  0  0  0
   20.1751   17.9545   24.8358 H   0  0  0  0  0  0  0  0  0  0  0  0
   19.8309   19.6722   24.8898 H   0  0  0  0  0  0  0  0  0  0  0  0
   21.2058   19.0895   23.3064 C   0  0  0  0  0  0  0  0  0  0  0  0
   22.0970   19.0268   23.9446 H   0  0  0  0  0  0  0  0  0  0  0  0
   21.3133   18.2982   22.5531 H   0  0  0  0  0  0  0  0  0  0  0  0
   21.1694   20.4786   22.6307 C   0  0  0  0  0  0  0  0  0  0  0  0
   20.6631   21.1788   23.3106 H   0  0  0  0  0  0  0  0  0  0  0  0
   20.4388   20.5112   21.2689 C   0  0  0  0  0  0  0  0  0  0  0  0
   20.1953   21.5586   21.0486 H   0  0  0  0  0  0  0  0  0  0  0  0
   21.1299   20.1903   20.4780 H   0  0  0  0  0  0  0  0  0  0  0  0
   19.1459   19.6653   21.1547 C   0  0  0  0  0  0  0  0  0  0  0  0
   18.5630   20.0492   20.3064 H   0  0  0  0  0  0  0  0  0  0  0  0
   19.4055   18.6315   20.8891 H   0  0  0  0  0  0  0  0  0  0  0  0
   22.5046   20.9236   22.4252 O   0  0  0  0  0  0  0  0  0  0  0  0
   22.9264   20.9683   23.3088 H   0  0  0  0  0  0  0  0  0  0  0  0
  1  2  1  0  0  0  0
  1  3  1  0  0  0  0
  1  4  1  0  0  0  0
  4  5  1  0  0  0  0
  4  6  1  0  0  0  0
  4  7  1  0  0  0  0
  7  8  1  0  0  0  0
  7  9  1  0  0  0  0
  7 10  1  0  0  0  0
 10 11  1  0  0  0  0
 10 12  1  0  0  0  0
 10 13  1  0  0  0  0
 13 14  1  0  0  0  0
 13 15  1  0  0  0  0
 15 16  1  0  0  0  0
 15 17  1  0  0  0  0
  1 18  1  0  0  0  0
 15 18  1  0  0  0  0
 18 19  1  0  0  0  0
 18 20  1  0  0  0  0
 13 21  1  0  0  0  0
 21 22  1  0  0  0  0
M  END
> <VConfSearch Rank>
450

> <Conf_Id>
144

> <Delta U+W>
-3.291

> <U+W>
3.132

> <U>
5.411

> <W>
-2.279

> <W(PB)>
-4.300

> <W(SA)>
2.021

> <Valence>
11.909

> <Coulomb>
-8.733

> <VdW>
2.236

> <VdW6>
-8.936

> <VdW12>
11.172

> <Bond>
0.223

> <Angle>
2.457

> <Pdih>
9.228

> <Idih>
0.000

> <Tether>
0.000

$$$$
VeraChem MOL file


 22 22  0  0  0  0  0  0  0  0999 V2000     
   19.0625   19.3739   24.1370 C   0  0  0  0  0  0  0  0  0  0  0  0
   18.4782   18.9824   24.9809 H   0  0  0  0  0  0  0  0  0  0  0  0
   19.2622   20.4289   24.3691 H   0  0  0  0  0  0  0  0  0  0  0  0
   18.2020   19.2443   22.8584 C   0  0  0  0  0  0  0  0  0  0  0  0
   18.2854   18.2225   22.4637 H   0  0  0  0  0  0  0  0  0  0  0  0
   17.1442   19.3686   23.1279 H   0  0  0  0  0  0  0  0  0  0  0  0
   18.5315   20.2618   21.7395 C   0  0  0  0  0  0  0  0  0  0  0  0
   18.0034   21.2029   21.9453 H   0  0  0  0  0  0  0  0  0  0  0  0
   18.1105   19.8834   20.7979 H   0  0  0  0  0  0  0  0  0  0  0  0
   20.0306   20.5869   21.5266 C   0  0  0  0  0  0  0  0  0  0  0  0
   20.1389   21.0340   20.5292 H   0  0  0  0  0  0  0  0  0  0  0  0
   20.3347   21.3666   22.2369 H   0  0  0  0  0  0  0  0  0  0  0  0
   20.9841   19.3779   21.6560 C   0  0  0  0  0  0  0  0  0  0  0  0
   20.4848   18.4733   21.2808 H   0  0  0  0  0  0  0  0  0  0  0  0
   21.4529   19.1460   23.1105 C   0  0  0  0  0  0  0  0  0  0  0  0
   22.3058   18.4543   23.0990 H   0  0  0  0  0  0  0  0  0  0  0  0
   21.8319   20.0879   23.5278 H   0  0  0  0  0  0  0  0  0  0  0  0
   20.3798   18.5652   24.0618 C   0  0  0  0  0  0  0  0  0  0  0  0
   20.1562   17.5301   23.7696 H   0  0  0  0  0  0  0  0  0  0  0  0
   20.8117   18.5048   25.0700 H   0  0  0  0  0  0  0  0  0  0  0  0
   22.1354   19.6299   20.8615 O   0  0  0  0  0  0  0  0  0  0  0  0
   22.5497   20.4400   21.2239 H   0  0  0  0  0  0  0  0  0  0  0  0
  1  2  1  0  0  0  0
  1  3  1  0  0  0  0
  1  4  1  0  0  0  0
  4  5  1  0  0  0  0
  4  6  1  0  0  0  0
  4  7  1  0  0  0  0
  7  8  1  0  0  0  0
  7  9  1  0  0  0  0
  7 10  1  0  0  0  0
 10 11  1  0  0  0  0
 10 12  1  0  0  0  0
 10 13  1  0  0  0  0
 13 14  1  0  0  0  0
 13 15  1  0  0  0  0
 15 16  1  0  0  0  0
 15 17  1  0  0  0  0
  1 18  1  0  0  0  0
 15 18  1  0  0  0  0
 18 19  1  0  0  0  0
 18 20  1  0  0  0  0
 13 21  1  0  0  0  0
 21 22  1  0  0  0  0
M  END
> <VConfSearch Rank>
451

> <Conf_Id>
76

> <Delta U+W>
-3.175

> <U+W>
3.248

> <U>
5.336

> <W>
-2.088

> <W(PB)>
-4.098

> <W(SA)>
2.010

> <Valence>
12.390

> <Coulomb>
-9.270

> <VdW>
2.216

> <VdW6>
-8.967

> <VdW12>
11.183

> <Bond>
0.218

> <Angle>
2.426

> <Pdih>
9.745

> <Idih>
0.000

> <Tether>
0.000

$$$$
VeraChem MOL file


 22 22  0  0  0  0  0  0  0  0999 V2000     
   21.7570   19.9088   21.9504 C   0  0  0  0  0  0  0  0  0  0  0  0
   22.0737   20.8158   21.4176 H   0  0  0  0  0  0  0  0  0  0  0  0
   22.6562   19.2834   22.0348 H   0  0  0  0  0  0  0  0  0  0  0  0
   20.7145   19.1726   21.0753 C   0  0  0  0  0  0  0  0  0  0  0  0
   20.0839   19.9088   20.5588 H   0  0  0  0  0  0  0  0  0  0  0  0
   21.2542   18.6395   20.2807 H   0  0  0  0  0  0  0  0  0  0  0  0
   19.8163   18.1677   21.8336 C   0  0  0  0  0  0  0  0  0  0  0  0
   20.3847   17.6423   22.6132 H   0  0  0  0  0  0  0  0  0  0  0  0
   19.4908   17.3969   21.1222 H   0  0  0  0  0  0  0  0  0  0  0  0
   18.5463   18.8280   22.4279 C   0  0  0  0  0  0  0  0  0  0  0  0
   18.0386   19.4040   21.6437 H   0  0  0  0  0  0  0  0  0  0  0  0
   17.8417   18.0364   22.7150 H   0  0  0  0  0  0  0  0  0  0  0  0
   18.7623   19.7416   23.6557 C   0  0  0  0  0  0  0  0  0  0  0  0
   17.8110   20.2636   23.8337 H   0  0  0  0  0  0  0  0  0  0  0  0
   19.8534   20.8282   23.4850 C   0  0  0  0  0  0  0  0  0  0  0  0
   19.6205   21.4559   22.6152 H   0  0  0  0  0  0  0  0  0  0  0  0
   19.7955   21.4950   24.3550 H   0  0  0  0  0  0  0  0  0  0  0  0
   21.3053   20.2933   23.3795 C   0  0  0  0  0  0  0  0  0  0  0  0
   21.9936   21.0625   23.7550 H   0  0  0  0  0  0  0  0  0  0  0  0
   21.4392   19.4325   24.0477 H   0  0  0  0  0  0  0  0  0  0  0  0
   19.0466   18.9370   24.7958 O   0  0  0  0  0  0  0  0  0  0  0  0
   19.2269   19.5537   25.5344 H   0  0  0  0  0  0  0  0  0  0  0  0
  1  2  1  0  0  0  0
  1  3  1  0  0  0  0
  1  4  1  0  0  0  0
  4  5  1  0  0  0  0
  4  6  1  0  0  0  0
  4  7  1  0  0  0  0
  7  8  1  0  0  0  0
  7  9  1  0  0  0  0
  7 10  1  0  0  0  0
 10 11  1  0  0  0  0
 10 12  1  0  0  0  0
 10 13  1  0  0  0  0
 13 14  1  0  0  0  0
 13 15  1  0  0  0  0
 15 16  1  0  0  0  0
 15 17  1  0  0  0  0
  1 18  1  0  0  0  0
 15 18  1  0  0  0  0
 18 19  1  0  0  0  0
 18 20  1  0  0  0  0
 13 21  1  0  0  0  0
 21 22  1  0  0  0  0
M  END
> <VConfSearch Rank>
452

> <Conf_Id>
95

> <Delta U+W>
-2.289

> <U+W>
4.134

> <U>
6.373

> <W>
-2.240

> <W(PB)>
-4.254

> <W(SA)>
2.015

> <Valence>
12.093

> <Coulomb>
-8.058

> <VdW>
2.339

> <VdW6>
-9.683

> <VdW12>
12.022

> <Bond>
0.268

> <Angle>
3.005

> <Pdih>
8.820

> <Idih>
0.000

> <Tether>
0.000

$$$$
VeraChem MOL file


 22 22  0  0  0  0  0  0  0  0999 V2000     
   21.1792   19.1625   24.1730 C   0  0  0  0  0  0  0  0  0  0  0  0
   22.0085   18.4422   24.1832 H   0  0  0  0  0  0  0  0  0  0  0  0
   21.1529   19.6009   25.1799 H   0  0  0  0  0  0  0  0  0  0  0  0
   19.8643   18.3833   23.9314 C   0  0  0  0  0  0  0  0  0  0  0  0
   20.0532   17.5531   23.2374 H   0  0  0  0  0  0  0  0  0  0  0  0
   19.5701   17.9121   24.8791 H   0  0  0  0  0  0  0  0  0  0  0  0
   18.6849   19.2347   23.4066 C   0  0  0  0  0  0  0  0  0  0  0  0
   18.6818   20.2305   23.8705 H   0  0  0  0  0  0  0  0  0  0  0  0
   17.7499   18.7500   23.7187 H   0  0  0  0  0  0  0  0  0  0  0  0
   18.6675   19.3431   21.8608 C   0  0  0  0  0  0  0  0  0  0  0  0
   18.7581   18.3378   21.4295 H   0  0  0  0  0  0  0  0  0  0  0  0
   17.6810   19.7071   21.5456 H   0  0  0  0  0  0  0  0  0  0  0  0
   19.7466   20.2517   21.2287 C   0  0  0  0  0  0  0  0  0  0  0  0
   19.7089   20.0814   20.1430 H   0  0  0  0  0  0  0  0  0  0  0  0
   21.1991   19.9621   21.6835 C   0  0  0  0  0  0  0  0  0  0  0  0
   21.4575   18.9172   21.4691 H   0  0  0  0  0  0  0  0  0  0  0  0
   21.8629   20.5700   21.0553 H   0  0  0  0  0  0  0  0  0  0  0  0
   21.5039   20.2932   23.1677 C   0  0  0  0  0  0  0  0  0  0  0  0
   22.5713   20.5332   23.2633 H   0  0  0  0  0  0  0  0  0  0  0  0
   20.9736   21.2084   23.4624 H   0  0  0  0  0  0  0  0  0  0  0  0
   19.4193   21.6158   21.4755 O   0  0  0  0  0  0  0  0  0  0  0  0
   18.4919   21.7392   21.1875 H   0  0  0  0  0  0  0  0  0  0  0  0
  1  2  1  0  0  0  0
  1  3  1  0  0  0  0
  1  4  1  0  0  0  0
  4  5  1  0  0  0  0
  4  6  1  0  0  0  0
  4  7  1  0  0  0  0
  7  8  1  0  0  0  0
  7  9  1  0  0  0  0
  7 10  1  0  0  0  0
 10 11  1  0  0  0  0
 10 12  1  0  0  0  0
 10 13  1  0  0  0  0
 13 14  1  0  0  0  0
 13 15  1  0  0  0  0
 15 16  1  0  0  0  0
 15 17  1  0  0  0  0
  1 18  1  0  0  0  0
 15 18  1  0  0  0  0
 18 19  1  0  0  0  0
 18 20  1  0  0  0  0
 13 21  1  0  0  0  0
 21 22  1  0  0  0  0
M  END
> <VConfSearch Rank>
453

> <Conf_Id>
41

> <Delta U+W>
-2.114

> <U+W>
4.310

> <U>
6.598

> <W>
-2.289

> <W(PB)>
-4.294

> <W(SA)>
2.005

> <Valence>
12.082

> <Coulomb>
-7.801

> <VdW>
2.317

> <VdW6>
-9.658

> <VdW12>
11.975

> <Bond>
0.267

> <Angle>
3.051

> <Pdih>
8.764

> <Idih>
0.000

> <Tether>
0.000

$$$$
VeraChem MOL file


 22 22  0  0  0  0  0  0  0  0999 V2000     
   18.7802   20.3525   23.3547 C   0  0  0  0  0  0  0  0  0  0  0  0
   17.8443   20.9013   23.5261 H   0  0  0  0  0  0  0  0  0  0  0  0
   19.0600   19.9113   24.3213 H   0  0  0  0  0  0  0  0  0  0  0  0
   19.8469   21.3685   22.8886 C   0  0  0  0  0  0  0  0  0  0  0  0
   19.5805   21.7508   21.8939 H   0  0  0  0  0  0  0  0  0  0  0  0
   19.8222   22.2365   23.5613 H   0  0  0  0  0  0  0  0  0  0  0  0
   21.2903   20.8198   22.8601 C   0  0  0  0  0  0  0  0  0  0  0  0
   21.6315   20.6356   23.8875 H   0  0  0  0  0  0  0  0  0  0  0  0
   21.9452   21.6106   22.4702 H   0  0  0  0  0  0  0  0  0  0  0  0
   21.4950   19.5460   21.9961 C   0  0  0  0  0  0  0  0  0  0  0  0
   21.0839   19.7026   20.9908 H   0  0  0  0  0  0  0  0  0  0  0  0
   22.5751   19.4095   21.8565 H   0  0  0  0  0  0  0  0  0  0  0  0
   20.9412   18.2257   22.5913 C   0  0  0  0  0  0  0  0  0  0  0  0
   21.4304   17.4049   22.0469 H   0  0  0  0  0  0  0  0  0  0  0  0
   19.4153   17.9993   22.4322 C   0  0  0  0  0  0  0  0  0  0  0  0
   19.2555   17.3854   21.5363 H   0  0  0  0  0  0  0  0  0  0  0  0
   19.0554   17.3866   23.2692 H   0  0  0  0  0  0  0  0  0  0  0  0
   18.5092   19.2493   22.3080 C   0  0  0  0  0  0  0  0  0  0  0  0
   18.5893   19.6691   21.2962 H   0  0  0  0  0  0  0  0  0  0  0  0
   17.4662   18.9191   22.4078 H   0  0  0  0  0  0  0  0  0  0  0  0
   21.3030   18.1078   23.9646 O   0  0  0  0  0  0  0  0  0  0  0  0
   20.9633   17.2434   24.2733 H   0  0  0  0  0  0  0  0  0  0  0  0
  1  2  1  0  0  0  0
  1  3  1  0  0  0  0
  1  4  1  0  0  0  0
  4  5  1  0  0  0  0
  4  6  1  0  0  0  0
  4  7  1  0  0  0  0
  7  8  1  0  0  0  0
  7  9  1  0  0  0  0
  7 10  1  0  0  0  0
 10 11  1  0  0  0  0
 10 12  1  0  0  0  0
 10 13  1  0  0  0  0
 13 14  1  0  0  0  0
 13 15  1  0  0  0  0
 15 16  1  0  0  0  0
 15 17  1  0  0  0  0
  1 18  1  0  0  0  0
 15 18  1  0  0  0  0
 18 19  1  0  0  0  0
 18 20  1  0  0  0  0
 13 21  1  0  0  0  0
 21 22  1  0  0  0  0
M  END
> <VConfSearch Rank>
454

> <Conf_Id>
104

> <Delta U+W>
-1.172

> <U+W>
5.252

> <U>
7.482

> <W>
-2.230

> <W(PB)>
-4.220

> <W(SA)>
1.990

> <Valence>
12.309

> <Coulomb>
-7.084

> <VdW>
2.258

> <VdW6>
-9.770

> <VdW12>
12.028

> <Bond>
0.284

> <Angle>
3.491

> <Pdih>
8.535

> <Idih>
0.000

> <Tether>
0.000

$$$$
VeraChem MOL file


 22 22  0  0  0  0  0  0  0  0999 V2000     
   19.9166   18.6735   24.0286 C   0  0  0  0  0  0  0  0  0  0  0  0
   18.9008   18.3429   23.7730 H   0  0  0  0  0  0  0  0  0  0  0  0
   20.1480   18.2154   25.0000 H   0  0  0  0  0  0  0  0  0  0  0  0
   19.9698   20.2082   24.2050 C   0  0  0  0  0  0  0  0  0  0  0  0
   19.5787   20.4603   25.2003 H   0  0  0  0  0  0  0  0  0  0  0  0
   21.0174   20.5364   24.2202 H   0  0  0  0  0  0  0  0  0  0  0  0
   19.1725   21.0321   23.1622 C   0  0  0  0  0  0  0  0  0  0  0  0
   19.6209   22.0328   23.0931 H   0  0  0  0  0  0  0  0  0  0  0  0
   18.1575   21.1941   23.5501 H   0  0  0  0  0  0  0  0  0  0  0  0
   19.0379   20.4344   21.7354 C   0  0  0  0  0  0  0  0  0  0  0  0
   18.2569   19.6631   21.7416 H   0  0  0  0  0  0  0  0  0  0  0  0
   18.6584   21.2226   21.0723 H   0  0  0  0  0  0  0  0  0  0  0  0
   20.3151   19.8426   21.0962 C   0  0  0  0  0  0  0  0  0  0  0  0
   20.1634   19.8372   20.0072 H   0  0  0  0  0  0  0  0  0  0  0  0
   20.5745   18.3787   21.5183 C   0  0  0  0  0  0  0  0  0  0  0  0
   19.6872   17.7800   21.2745 H   0  0  0  0  0  0  0  0  0  0  0  0
   21.3818   17.9796   20.8905 H   0  0  0  0  0  0  0  0  0  0  0  0
   20.9465   18.1428   23.0031 C   0  0  0  0  0  0  0  0  0  0  0  0
   21.0572   17.0603   23.1541 H   0  0  0  0  0  0  0  0  0  0  0  0
   21.9357   18.5723   23.2120 H   0  0  0  0  0  0  0  0  0  0  0  0
   21.4439   20.6470   21.4009 O   0  0  0  0  0  0  0  0  0  0  0  0
   21.4628   20.6711   22.3783 H   0  0  0  0  0  0  0  0  0  0  0  0
  1  2  1  0  0  0  0
  1  3  1  0  0  0  0
  1  4  1  0  0  0  0
  4  5  1  0  0  0  0
  4  6  1  0  0  0  0
  4  7  1  0  0  0  0
  7  8  1  0  0  0  0
  7  9  1  0  0  0  0
  7 10  1  0  0  0  0
 10 11  1  0  0  0  0
 10 12  1  0  0  0  0
 10 13  1  0  0  0  0
 13 14  1  0  0  0  0
 13 15  1  0  0  0  0
 15 16  1  0  0  0  0
 15 17  1  0  0  0  0
  1 18  1  0  0  0  0
 15 18  1  0  0  0  0
 18 19  1  0  0  0  0
 18 20  1  0  0  0  0
 13 21  1  0  0  0  0
 21 22  1  0  0  0  0
M  END
> <VConfSearch Rank>
455

> <Conf_Id>
99

> <Delta U+W>
-3.852

> <U+W>
2.572

> <U>
3.922

> <W>
-1.350

> <W(PB)>
-3.345

> <W(SA)>
1.995

> <Valence>
12.571

> <Coulomb>
-10.581

> <VdW>
1.932

> <VdW6>
-10.483

> <VdW12>
12.415

> <Bond>
0.268

> <Angle>
3.728

> <Pdih>
8.575

> <Idih>
0.000

> <Tether>
0.000

$$$$
VeraChem MOL file


 22 22  0  0  0  0  0  0  0  0999 V2000     
   18.5723   18.9209   22.4105 C   0  0  0  0  0  0  0  0  0  0  0  0
   17.4945   19.0055   22.2144 H   0  0  0  0  0  0  0  0  0  0  0  0
   18.7729   17.8413   22.4281 H   0  0  0  0  0  0  0  0  0  0  0  0
   18.8531   19.5417   23.8103 C   0  0  0  0  0  0  0  0  0  0  0  0
   17.8968   19.8948   24.2203 H   0  0  0  0  0  0  0  0  0  0  0  0
   19.1903   18.7639   24.5085 H   0  0  0  0  0  0  0  0  0  0  0  0
   19.8470   20.7308   23.8388 C   0  0  0  0  0  0  0  0  0  0  0  0
   19.8060   21.1928   24.8346 H   0  0  0  0  0  0  0  0  0  0  0  0
   19.5030   21.5174   23.1557 H   0  0  0  0  0  0  0  0  0  0  0  0
   21.3315   20.3854   23.5360 C   0  0  0  0  0  0  0  0  0  0  0  0
   21.8354   21.3013   23.2014 H   0  0  0  0  0  0  0  0  0  0  0  0
   21.8232   20.1117   24.4790 H   0  0  0  0  0  0  0  0  0  0  0  0
   21.6274   19.2616   22.5124 C   0  0  0  0  0  0  0  0  0  0  0  0
   22.6980   19.3242   22.2699 H   0  0  0  0  0  0  0  0  0  0  0  0
   20.8572   19.3363   21.1711 C   0  0  0  0  0  0  0  0  0  0  0  0
   21.3052   20.1280   20.5569 H   0  0  0  0  0  0  0  0  0  0  0  0
   21.0503   18.4024   20.6263 H   0  0  0  0  0  0  0  0  0  0  0  0
   19.3214   19.5684   21.2179 C   0  0  0  0  0  0  0  0  0  0  0  0
   19.1084   20.6442   21.1869 H   0  0  0  0  0  0  0  0  0  0  0  0
   18.8936   19.1754   20.2855 H   0  0  0  0  0  0  0  0  0  0  0  0
   21.4085   17.9969   23.1174 O   0  0  0  0  0  0  0  0  0  0  0  0
   20.4499   17.9909   23.3122 H   0  0  0  0  0  0  0  0  0  0  0  0
  1  2  1  0  0  0  0
  1  3  1  0  0  0  0
  1  4  1  0  0  0  0
  4  5  1  0  0  0  0
  4  6  1  0  0  0  0
  4  7  1  0  0  0  0
  7  8  1  0  0  0  0
  7  9  1  0  0  0  0
  7 10  1  0  0  0  0
 10 11  1  0  0  0  0
 10 12  1  0  0  0  0
 10 13  1  0  0  0  0
 13 14  1  0  0  0  0
 13 15  1  0  0  0  0
 15 16  1  0  0  0  0
 15 17  1  0  0  0  0
  1 18  1  0  0  0  0
 15 18  1  0  0  0  0
 18 19  1  0  0  0  0
 18 20  1  0  0  0  0
 13 21  1  0  0  0  0
 21 22  1  0  0  0  0
M  END
> <VConfSearch Rank>
456

> <Conf_Id>
98

> <Delta U+W>
0.930

> <U+W>
7.353

> <U>
8.455

> <W>
-1.102

> <W(PB)>
-3.101

> <W(SA)>
2.000

> <Valence>
15.601

> <Coulomb>
-10.573

> <VdW>
3.427

> <VdW6>
-11.360

> <VdW12>
14.787

> <Bond>
0.471

> <Angle>
5.445

> <Pdih>
9.685

> <Idih>
0.000

> <Tether>
0.000

$$$$
VeraChem MOL file


 22 22  0  0  0  0  0  0  0  0999 V2000     
   18.4111   19.3777   23.2510 C   0  0  0  0  0  0  0  0  0  0  0  0
   18.2828   20.4465   23.0364 H   0  0  0  0  0  0  0  0  0  0  0  0
   17.4308   19.0401   23.6139 H   0  0  0  0  0  0  0  0  0  0  0  0
   19.4485   19.1923   24.3875 C   0  0  0  0  0  0  0  0  0  0  0  0
   19.0732   19.7304   25.2687 H   0  0  0  0  0  0  0  0  0  0  0  0
   19.4885   18.1342   24.6798 H   0  0  0  0  0  0  0  0  0  0  0  0
   20.8887   19.6949   24.0912 C   0  0  0  0  0  0  0  0  0  0  0  0
   21.5463   18.8441   23.8705 H   0  0  0  0  0  0  0  0  0  0  0  0
   21.2945   20.1342   25.0126 H   0  0  0  0  0  0  0  0  0  0  0  0
   20.9977   20.7421   22.9514 C   0  0  0  0  0  0  0  0  0  0  0  0
   20.2919   21.5594   23.1448 H   0  0  0  0  0  0  0  0  0  0  0  0
   21.9906   21.2087   23.0055 H   0  0  0  0  0  0  0  0  0  0  0  0
   20.7723   20.2028   21.5084 C   0  0  0  0  0  0  0  0  0  0  0  0
   20.0959   20.8969   20.9890 H   0  0  0  0  0  0  0  0  0  0  0  0
   20.1747   18.7772   21.4041 C   0  0  0  0  0  0  0  0  0  0  0  0
   20.1788   18.4662   20.3514 H   0  0  0  0  0  0  0  0  0  0  0  0
   20.8320   18.0632   21.9149 H   0  0  0  0  0  0  0  0  0  0  0  0
   18.7292   18.6222   21.9392 C   0  0  0  0  0  0  0  0  0  0  0  0
   18.0261   18.9656   21.1681 H   0  0  0  0  0  0  0  0  0  0  0  0
   18.5229   17.5526   22.0802 H   0  0  0  0  0  0  0  0  0  0  0  0
   22.0239   20.1910   20.8311 O   0  0  0  0  0  0  0  0  0  0  0  0
   21.8450   19.9034   19.9116 H   0  0  0  0  0  0  0  0  0  0  0  0
  1  2  1  0  0  0  0
  1  3  1  0  0  0  0
  1  4  1  0  0  0  0
  4  5  1  0  0  0  0
  4  6  1  0  0  0  0
  4  7  1  0  0  0  0
  7  8  1  0  0  0  0
  7  9  1  0  0  0  0
  7 10  1  0  0  0  0
 10 11  1  0  0  0  0
 10 12  1  0  0  0  0
 10 13  1  0  0  0  0
 13 14  1  0  0  0  0
 13 15  1  0  0  0  0
 15 16  1  0  0  0  0
 15 17  1  0  0  0  0
  1 18  1  0  0  0  0
 15 18  1  0  0  0  0
 18 19  1  0  0  0  0
 18 20  1  0  0  0  0
 13 21  1  0  0  0  0
 21 22  1  0  0  0  0
M  END
> <VConfSearch Rank>
457

> <Conf_Id>
141

> <Delta U+W>
0.000

> <U+W>
6.423

> <U>
8.781

> <W>
-2.358

> <W(PB)>
-4.373

> <W(SA)>
2.015

> <Valence>
13.328

> <Coulomb>
-8.387

> <VdW>
3.840

> <VdW6>
-9.744

> <VdW12>
13.584

> <Bond>
0.436

> <Angle>
3.478

> <Pdih>
9.415

> <Idih>
0.000

> <Tether>
0.000

$$$$
VeraChem MOL file


 22 22  0  0  0  0  0  0  0  0999 V2000     
   20.3279   20.6371   24.0323 C   0  0  0  0  0  0  0  0  0  0  0  0
   21.1415   19.9534   24.3102 H   0  0  0  0  0  0  0  0  0  0  0  0
   20.3615   21.4602   24.7592 H   0  0  0  0  0  0  0  0  0  0  0  0
   18.9509   19.9442   24.1709 C   0  0  0  0  0  0  0  0  0  0  0  0
   18.7527   19.7697   25.2372 H   0  0  0  0  0  0  0  0  0  0  0  0
   18.1627   20.6289   23.8291 H   0  0  0  0  0  0  0  0  0  0  0  0
   18.8138   18.5953   23.4280 C   0  0  0  0  0  0  0  0  0  0  0  0
   17.7803   18.2425   23.5466 H   0  0  0  0  0  0  0  0  0  0  0  0
   19.4456   17.8424   23.9190 H   0  0  0  0  0  0  0  0  0  0  0  0
   19.1491   18.6436   21.9172 C   0  0  0  0  0  0  0  0  0  0  0  0
   18.7960   17.7058   21.4686 H   0  0  0  0  0  0  0  0  0  0  0  0
   18.5904   19.4484   21.4221 H   0  0  0  0  0  0  0  0  0  0  0  0
   20.6634   18.7902   21.6466 C   0  0  0  0  0  0  0  0  0  0  0  0
   21.2080   18.2679   22.4462 H   0  0  0  0  0  0  0  0  0  0  0  0
   21.1671   20.2504   21.5905 C   0  0  0  0  0  0  0  0  0  0  0  0
   22.2570   20.2300   21.7188 H   0  0  0  0  0  0  0  0  0  0  0  0
   20.9901   20.6576   20.5860 H   0  0  0  0  0  0  0  0  0  0  0  0
   20.5629   21.2331   22.6246 C   0  0  0  0  0  0  0  0  0  0  0  0
   21.2396   22.0942   22.7102 H   0  0  0  0  0  0  0  0  0  0  0  0
   19.6183   21.6389   22.2376 H   0  0  0  0  0  0  0  0  0  0  0  0
   20.9689   18.1705   20.4033 O   0  0  0  0  0  0  0  0  0  0  0  0
   20.7115   17.2284   20.4866 H   0  0  0  0  0  0  0  0  0  0  0  0
  1  2  1  0  0  0  0
  1  3  1  0  0  0  0
  1  4  1  0  0  0  0
  4  5  1  0  0  0  0
  4  6  1  0  0  0  0
  4  7  1  0  0  0  0
  7  8  1  0  0  0  0
  7  9  1  0  0  0  0
  7 10  1  0  0  0  0
 10 11  1  0  0  0  0
 10 12  1  0  0  0  0
 10 13  1  0  0  0  0
 13 14  1  0  0  0  0
 13 15  1  0  0  0  0
 15 16  1  0  0  0  0
 15 17  1  0  0  0  0
  1 18  1  0  0  0  0
 15 18  1  0  0  0  0
 18 19  1  0  0  0  0
 18 20  1  0  0  0  0
 13 21  1  0  0  0  0
 21 22  1  0  0  0  0
M  END
> <VConfSearch Rank>
458

> <Conf_Id>
144

> <Delta U+W>
-3.291

> <U+W>
3.132

> <U>
5.411

> <W>
-2.279

> <W(PB)>
-4.300

> <W(SA)>
2.021

> <Valence>
11.909

> <Coulomb>
-8.733

> <VdW>
2.236

> <VdW6>
-8.936

> <VdW12>
11.172

> <Bond>
0.223

> <Angle>
2.457

> <Pdih>
9.228

> <Idih>
0.000

> <Tether>
0.000

$$$$
VeraChem MOL file


 22 22  0  0  0  0  0  0  0  0999 V2000     
   20.6197   20.7406   23.7165 C   0  0  0  0  0  0  0  0  0  0  0  0
   20.8848   21.6762   24.2277 H   0  0  0  0  0  0  0  0  0  0  0  0
   21.1668   19.9437   24.2384 H   0  0  0  0  0  0  0  0  0  0  0  0
   21.0805   20.8527   22.2444 C   0  0  0  0  0  0  0  0  0  0  0  0
   20.3254   21.4021   21.6658 H   0  0  0  0  0  0  0  0  0  0  0  0
   21.9882   21.4702   22.2022 H   0  0  0  0  0  0  0  0  0  0  0  0
   21.3883   19.5047   21.5486 C   0  0  0  0  0  0  0  0  0  0  0  0
   22.4133   19.1990   21.7991 H   0  0  0  0  0  0  0  0  0  0  0  0
   21.3839   19.6712   20.4626 H   0  0  0  0  0  0  0  0  0  0  0  0
   20.4391   18.3273   21.8819 C   0  0  0  0  0  0  0  0  0  0  0  0
   20.5585   17.5674   21.0978 H   0  0  0  0  0  0  0  0  0  0  0  0
   20.7708   17.8493   22.8126 H   0  0  0  0  0  0  0  0  0  0  0  0
   18.9470   18.7088   22.0071 C   0  0  0  0  0  0  0  0  0  0  0  0
   18.7122   19.5149   21.2975 H   0  0  0  0  0  0  0  0  0  0  0  0
   18.5666   19.1509   23.4385 C   0  0  0  0  0  0  0  0  0  0  0  0
   17.4718   19.1607   23.5242 H   0  0  0  0  0  0  0  0  0  0  0  0
   18.9205   18.4024   24.1593 H   0  0  0  0  0  0  0  0  0  0  0  0
   19.0909   20.5452   23.8566 C   0  0  0  0  0  0  0  0  0  0  0  0
   18.5695   21.3190   23.2766 H   0  0  0  0  0  0  0  0  0  0  0  0
   18.8104   20.7171   24.9047 H   0  0  0  0  0  0  0  0  0  0  0  0
   18.1652   17.5677   21.6807 O   0  0  0  0  0  0  0  0  0  0  0  0
   18.4027   16.8745   22.3305 H   0  0  0  0  0  0  0  0  0  0  0  0
  1  2  1  0  0  0  0
  1  3  1  0  0  0  0
  1  4  1  0  0  0  0
  4  5  1  0  0  0  0
  4  6  1  0  0  0  0
  4  7  1  0  0  0  0
  7  8  1  0  0  0  0
  7  9  1  0  0  0  0
  7 10  1  0  0  0  0
 10 11  1  0  0  0  0
 10 12  1  0  0  0  0
 10 13  1  0  0  0  0
 13 14  1  0  0  0  0
 13 15  1  0  0  0  0
 15 16  1  0  0  0  0
 15 17  1  0  0  0  0
  1 18  1  0  0  0  0
 15 18  1  0  0  0  0
 18 19  1  0  0  0  0
 18 20  1  0  0  0  0
 13 21  1  0  0  0  0
 21 22  1  0  0  0  0
M  END
> <VConfSearch Rank>
459

> <Conf_Id>
76

> <Delta U+W>
-3.175

> <U+W>
3.248

> <U>
5.336

> <W>
-2.088

> <W(PB)>
-4.098

> <W(SA)>
2.010

> <Valence>
12.390

> <Coulomb>
-9.270

> <VdW>
2.216

> <VdW6>
-8.967

> <VdW12>
11.183

> <Bond>
0.218

> <Angle>
2.426

> <Pdih>
9.745

> <Idih>
0.000

> <Tether>
0.000

$$$$
VeraChem MOL file


 22 22  0  0  0  0  0  0  0  0999 V2000     
   21.8298   19.8440   23.2656 C   0  0  0  0  0  0  0  0  0  0  0  0
   22.3046   20.8071   23.4976 H   0  0  0  0  0  0  0  0  0  0  0  0
   22.5730   19.0762   23.5204 H   0  0  0  0  0  0  0  0  0  0  0  0
   21.5579   19.7928   21.7430 C   0  0  0  0  0  0  0  0  0  0  0  0
   21.2703   20.7918   21.3882 H   0  0  0  0  0  0  0  0  0  0  0  0
   22.5052   19.5628   21.2366 H   0  0  0  0  0  0  0  0  0  0  0  0
   20.4906   18.7638   21.3032 C   0  0  0  0  0  0  0  0  0  0  0  0
   20.5556   17.8474   21.9055 H   0  0  0  0  0  0  0  0  0  0  0  0
   20.7104   18.4651   20.2694 H   0  0  0  0  0  0  0  0  0  0  0  0
   19.0526   19.3412   21.3319 C   0  0  0  0  0  0  0  0  0  0  0  0
   19.0345   20.2917   20.7834 H   0  0  0  0  0  0  0  0  0  0  0  0
   18.3926   18.6655   20.7723 H   0  0  0  0  0  0  0  0  0  0  0  0
   18.4329   19.5619   22.7306 C   0  0  0  0  0  0  0  0  0  0  0  0
   17.5067   20.1352   22.5801 H   0  0  0  0  0  0  0  0  0  0  0  0
   19.3112   20.3668   23.7211 C   0  0  0  0  0  0  0  0  0  0  0  0
   19.5606   21.3440   23.2878 H   0  0  0  0  0  0  0  0  0  0  0  0
   18.6990   20.5832   24.6060 H   0  0  0  0  0  0  0  0  0  0  0  0
   20.6038   19.6489   24.1892 C   0  0  0  0  0  0  0  0  0  0  0  0
   20.8720   20.0191   25.1879 H   0  0  0  0  0  0  0  0  0  0  0  0
   20.4127   18.5755   24.3188 H   0  0  0  0  0  0  0  0  0  0  0  0
   18.0873   18.3012   23.2956 O   0  0  0  0  0  0  0  0  0  0  0  0
   17.7490   18.4826   24.1961 H   0  0  0  0  0  0  0  0  0  0  0  0
  1  2  1  0  0  0  0
  1  3  1  0  0  0  0
  1  4  1  0  0  0  0
  4  5  1  0  0  0  0
  4  6  1  0  0  0  0
  4  7  1  0  0  0  0
  7  8  1  0  0  0  0
  7  9  1  0  0  0  0
  7 10  1  0  0  0  0
 10 11  1  0  0  0  0
 10 12  1  0  0  0  0
 10 13  1  0  0  0  0
 13 14  1  0  0  0  0
 13 15  1  0  0  0  0
 15 16  1  0  0  0  0
 15 17  1  0  0  0  0
  1 18  1  0  0  0  0
 15 18  1  0  0  0  0
 18 19  1  0  0  0  0
 18 20  1  0  0  0  0
 13 21  1  0  0  0  0
 21 22  1  0  0  0  0
M  END
> <VConfSearch Rank>
460

> <Conf_Id>
95

> <Delta U+W>
-2.289

> <U+W>
4.134

> <U>
6.373

> <W>
-2.240

> <W(PB)>
-4.254

> <W(SA)>
2.015

> <Valence>
12.093

> <Coulomb>
-8.058

> <VdW>
2.339

> <VdW6>
-9.683

> <VdW12>
12.022

> <Bond>
0.268

> <Angle>
3.005

> <Pdih>
8.820

> <Idih>
0.000

> <Tether>
0.000

$$$$
VeraChem MOL file


 22 22  0  0  0  0  0  0  0  0999 V2000     
   21.4469   20.9263   22.7662 C   0  0  0  0  0  0  0  0  0  0  0  0
   22.4672   20.8014   23.1539 H   0  0  0  0  0  0  0  0  0  0  0  0
   21.4003   21.9518   22.3751 H   0  0  0  0  0  0  0  0  0  0  0  0
   20.4598   20.7964   23.9506 C   0  0  0  0  0  0  0  0  0  0  0  0
   20.8320   20.0413   24.6561 H   0  0  0  0  0  0  0  0  0  0  0  0
   20.4682   21.7449   24.5048 H   0  0  0  0  0  0  0  0  0  0  0  0
   19.0033   20.4584   23.5559 C   0  0  0  0  0  0  0  0  0  0  0  0
   18.7179   20.9729   22.6281 H   0  0  0  0  0  0  0  0  0  0  0  0
   18.3391   20.8498   24.3383 H   0  0  0  0  0  0  0  0  0  0  0  0
   18.7532   18.9333   23.4435 C   0  0  0  0  0  0  0  0  0  0  0  0
   19.1275   18.4404   24.3501 H   0  0  0  0  0  0  0  0  0  0  0  0
   17.6702   18.7544   23.4412 H   0  0  0  0  0  0  0  0  0  0  0  0
   19.3655   18.2308   22.2101 C   0  0  0  0  0  0  0  0  0  0  0  0
   19.2506   17.1491   22.3711 H   0  0  0  0  0  0  0  0  0  0  0  0
   20.8745   18.4982   21.9825 C   0  0  0  0  0  0  0  0  0  0  0  0
   21.4461   18.1991   22.8703 H   0  0  0  0  0  0  0  0  0  0  0  0
   21.2038   17.8314   21.1752 H   0  0  0  0  0  0  0  0  0  0  0  0
   21.2334   19.9530   21.5823 C   0  0  0  0  0  0  0  0  0  0  0  0
   22.1567   19.9375   20.9877 H   0  0  0  0  0  0  0  0  0  0  0  0
   20.4635   20.3563   20.9112 H   0  0  0  0  0  0  0  0  0  0  0  0
   18.6244   18.5874   21.0472 O   0  0  0  0  0  0  0  0  0  0  0  0
   17.6823   18.4157   21.2502 H   0  0  0  0  0  0  0  0  0  0  0  0
  1  2  1  0  0  0  0
  1  3  1  0  0  0  0
  1  4  1  0  0  0  0
  4  5  1  0  0  0  0
  4  6  1  0  0  0  0
  4  7  1  0  0  0  0
  7  8  1  0  0  0  0
  7  9  1  0  0  0  0
  7 10  1  0  0  0  0
 10 11  1  0  0  0  0
 10 12  1  0  0  0  0
 10 13  1  0  0  0  0
 13 14  1  0  0  0  0
 13 15  1  0  0  0  0
 15 16  1  0  0  0  0
 15 17  1  0  0  0  0
  1 18  1  0  0  0  0
 15 18  1  0  0  0  0
 18 19  1  0  0  0  0
 18 20  1  0  0  0  0
 13 21  1  0  0  0  0
 21 22  1  0  0  0  0
M  END
> <VConfSearch Rank>
461

> <Conf_Id>
41

> <Delta U+W>
-2.114

> <U+W>
4.310

> <U>
6.598

> <W>
-2.289

> <W(PB)>
-4.294

> <W(SA)>
2.005

> <Valence>
12.082

> <Coulomb>
-7.801

> <VdW>
2.317

> <VdW6>
-9.658

> <VdW12>
11.975

> <Bond>
0.267

> <Angle>
3.051

> <Pdih>
8.764

> <Idih>
0.000

> <Tether>
0.000

$$$$
VeraChem MOL file


 22 22  0  0  0  0  0  0  0  0999 V2000     
   18.9528   18.7892   23.6808 C   0  0  0  0  0  0  0  0  0  0  0  0
   18.0690   18.5138   24.2721 H   0  0  0  0  0  0  0  0  0  0  0  0
   19.4879   17.8526   23.4721 H   0  0  0  0  0  0  0  0  0  0  0  0
   19.8216   19.7352   24.5398 C   0  0  0  0  0  0  0  0  0  0  0  0
   19.2948   20.6881   24.6844 H   0  0  0  0  0  0  0  0  0  0  0  0
   19.9323   19.2973   25.5411 H   0  0  0  0  0  0  0  0  0  0  0  0
   21.2321   20.0071   23.9725 C   0  0  0  0  0  0  0  0  0  0  0  0
   21.8312   19.0884   24.0266 H   0  0  0  0  0  0  0  0  0  0  0  0
   21.7320   20.7237   24.6379 H   0  0  0  0  0  0  0  0  0  0  0  0
   21.2639   20.5774   22.5285 C   0  0  0  0  0  0  0  0  0  0  0  0
   20.6040   21.4511   22.4540 H   0  0  0  0  0  0  0  0  0  0  0  0
   22.2775   20.9551   22.3429 H   0  0  0  0  0  0  0  0  0  0  0  0
   20.9363   19.5724   21.3943 C   0  0  0  0  0  0  0  0  0  0  0  0
   21.3050   20.0202   20.4600 H   0  0  0  0  0  0  0  0  0  0  0  0
   19.4311   19.2767   21.1659 C   0  0  0  0  0  0  0  0  0  0  0  0
   19.0747   19.9350   20.3630 H   0  0  0  0  0  0  0  0  0  0  0  0
   19.3224   18.2575   20.7722 H   0  0  0  0  0  0  0  0  0  0  0  0
   18.4711   19.4478   22.3692 C   0  0  0  0  0  0  0  0  0  0  0  0
   18.2732   20.5146   22.5398 H   0  0  0  0  0  0  0  0  0  0  0  0
   17.5030   19.0096   22.0912 H   0  0  0  0  0  0  0  0  0  0  0  0
   21.6405   18.3495   21.5932 O   0  0  0  0  0  0  0  0  0  0  0  0
   21.4275   17.7734   20.8313 H   0  0  0  0  0  0  0  0  0  0  0  0
  1  2  1  0  0  0  0
  1  3  1  0  0  0  0
  1  4  1  0  0  0  0
  4  5  1  0  0  0  0
  4  6  1  0  0  0  0
  4  7  1  0  0  0  0
  7  8  1  0  0  0  0
  7  9  1  0  0  0  0
  7 10  1  0  0  0  0
 10 11  1  0  0  0  0
 10 12  1  0  0  0  0
 10 13  1  0  0  0  0
 13 14  1  0  0  0  0
 13 15  1  0  0  0  0
 15 16  1  0  0  0  0
 15 17  1  0  0  0  0
  1 18  1  0  0  0  0
 15 18  1  0  0  0  0
 18 19  1  0  0  0  0
 18 20  1  0  0  0  0
 13 21  1  0  0  0  0
 21 22  1  0  0  0  0
M  END
> <VConfSearch Rank>
462

> <Conf_Id>
104

> <Delta U+W>
-1.172

> <U+W>
5.252

> <U>
7.482

> <W>
-2.230

> <W(PB)>
-4.220

> <W(SA)>
1.990

> <Valence>
12.309

> <Coulomb>
-7.084

> <VdW>
2.258

> <VdW6>
-9.770

> <VdW12>
12.028

> <Bond>
0.284

> <Angle>
3.491

> <Pdih>
8.535

> <Idih>
0.000

> <Tether>
0.000

$$$$
VeraChem MOL file


 22 22  0  0  0  0  0  0  0  0999 V2000     
   20.6054   18.2154   23.3967 C   0  0  0  0  0  0  0  0  0  0  0  0
   20.9004   17.7515   22.4458 H   0  0  0  0  0  0  0  0  0  0  0  0
   20.8325   17.4760   24.1769 H   0  0  0  0  0  0  0  0  0  0  0  0
   19.0839   18.4862   23.4305 C   0  0  0  0  0  0  0  0  0  0  0  0
   18.5659   17.5462   23.6657 H   0  0  0  0  0  0  0  0  0  0  0  0
   18.8522   19.1555   24.2693 H   0  0  0  0  0  0  0  0  0  0  0  0
   18.4724   19.0471   22.1216 C   0  0  0  0  0  0  0  0  0  0  0  0
   17.5602   19.6047   22.3750 H   0  0  0  0  0  0  0  0  0  0  0  0
   18.1355   18.2021   21.5056 H   0  0  0  0  0  0  0  0  0  0  0  0
   19.3842   19.9379   21.2349 C   0  0  0  0  0  0  0  0  0  0  0  0
   20.0617   19.2954   20.6577 H   0  0  0  0  0  0  0  0  0  0  0  0
   18.7508   20.4328   20.4874 H   0  0  0  0  0  0  0  0  0  0  0  0
   20.2198   21.0236   21.9512 C   0  0  0  0  0  0  0  0  0  0  0  0
   20.4758   21.7864   21.2019 H   0  0  0  0  0  0  0  0  0  0  0  0
   21.5544   20.4818   22.5111 C   0  0  0  0  0  0  0  0  0  0  0  0
   22.1165   20.0163   21.6911 H   0  0  0  0  0  0  0  0  0  0  0  0
   22.1609   21.3368   22.8371 H   0  0  0  0  0  0  0  0  0  0  0  0
   21.4544   19.4765   23.6850 C   0  0  0  0  0  0  0  0  0  0  0  0
   22.4734   19.1552   23.9403 H   0  0  0  0  0  0  0  0  0  0  0  0
   21.0728   19.9859   24.5802 H   0  0  0  0  0  0  0  0  0  0  0  0
   19.4646   21.6307   22.9881 O   0  0  0  0  0  0  0  0  0  0  0  0
   19.2061   20.8835   23.5637 H   0  0  0  0  0  0  0  0  0  0  0  0
  1  2  1  0  0  0  0
  1  3  1  0  0  0  0
  1  4  1  0  0  0  0
  4  5  1  0  0  0  0
  4  6  1  0  0  0  0
  4  7  1  0  0  0  0
  7  8  1  0  0  0  0
  7  9  1  0  0  0  0
  7 10  1  0  0  0  0
 10 11  1  0  0  0  0
 10 12  1  0  0  0  0
 10 13  1  0  0  0  0
 13 14  1  0  0  0  0
 13 15  1  0  0  0  0
 15 16  1  0  0  0  0
 15 17  1  0  0  0  0
  1 18  1  0  0  0  0
 15 18  1  0  0  0  0
 18 19  1  0  0  0  0
 18 20  1  0  0  0  0
 13 21  1  0  0  0  0
 21 22  1  0  0  0  0
M  END
> <VConfSearch Rank>
463

> <Conf_Id>
99

> <Delta U+W>
-3.852

> <U+W>
2.572

> <U>
3.922

> <W>
-1.350

> <W(PB)>
-3.345

> <W(SA)>
1.995

> <Valence>
12.571

> <Coulomb>
-10.581

> <VdW>
1.932

> <VdW6>
-10.483

> <VdW12>
12.415

> <Bond>
0.268

> <Angle>
3.728

> <Pdih>
8.575

> <Idih>
0.000

> <Tether>
0.000

$$$$
VeraChem MOL file


 22 22  0  0  0  0  0  0  0  0999 V2000     
   21.0344   18.4844   23.4713 C   0  0  0  0  0  0  0  0  0  0  0  0
   21.7354   17.6383   23.4770 H   0  0  0  0  0  0  0  0  0  0  0  0
   20.9045   18.7515   24.5285 H   0  0  0  0  0  0  0  0  0  0  0  0
   19.6863   17.9834   22.8750 C   0  0  0  0  0  0  0  0  0  0  0  0
   19.8038   16.9204   22.6229 H   0  0  0  0  0  0  0  0  0  0  0  0
   18.9011   18.0071   23.6424 H   0  0  0  0  0  0  0  0  0  0  0  0
   19.1915   18.7185   21.6032 C   0  0  0  0  0  0  0  0  0  0  0  0
   18.3510   18.1515   21.1803 H   0  0  0  0  0  0  0  0  0  0  0  0
   19.9671   18.6807   20.8283 H   0  0  0  0  0  0  0  0  0  0  0  0
   18.7216   20.1860   21.8040 C   0  0  0  0  0  0  0  0  0  0  0  0
   18.7793   20.7001   20.8359 H   0  0  0  0  0  0  0  0  0  0  0  0
   17.6547   20.1760   22.0639 H   0  0  0  0  0  0  0  0  0  0  0  0
   19.4513   21.0500   22.8619 C   0  0  0  0  0  0  0  0  0  0  0  0
   19.1381   22.0907   22.6955 H   0  0  0  0  0  0  0  0  0  0  0  0
   20.9989   21.0325   22.8117 C   0  0  0  0  0  0  0  0  0  0  0  0
   21.3259   21.6468   21.9628 H   0  0  0  0  0  0  0  0  0  0  0  0
   21.3648   21.5549   23.7057 H   0  0  0  0  0  0  0  0  0  0  0  0
   21.7153   19.6566   22.7197 C   0  0  0  0  0  0  0  0  0  0  0  0
   21.8629   19.3856   21.6669 H   0  0  0  0  0  0  0  0  0  0  0  0
   22.7316   19.7798   23.1180 H   0  0  0  0  0  0  0  0  0  0  0  0
   19.0129   20.6834   24.1606 O   0  0  0  0  0  0  0  0  0  0  0  0
   19.3135   19.7577   24.2590 H   0  0  0  0  0  0  0  0  0  0  0  0
  1  2  1  0  0  0  0
  1  3  1  0  0  0  0
  1  4  1  0  0  0  0
  4  5  1  0  0  0  0
  4  6  1  0  0  0  0
  4  7  1  0  0  0  0
  7  8  1  0  0  0  0
  7  9  1  0  0  0  0
  7 10  1  0  0  0  0
 10 11  1  0  0  0  0
 10 12  1  0  0  0  0
 10 13  1  0  0  0  0
 13 14  1  0  0  0  0
 13 15  1  0  0  0  0
 15 16  1  0  0  0  0
 15 17  1  0  0  0  0
  1 18  1  0  0  0  0
 15 18  1  0  0  0  0
 18 19  1  0  0  0  0
 18 20  1  0  0  0  0
 13 21  1  0  0  0  0
 21 22  1  0  0  0  0
M  END
> <VConfSearch Rank>
464

> <Conf_Id>
98

> <Delta U+W>
0.930

> <U+W>
7.353

> <U>
8.455

> <W>
-1.102

> <W(PB)>
-3.101

> <W(SA)>
2.000

> <Valence>
15.601

> <Coulomb>
-10.573

> <VdW>
3.427

> <VdW6>
-11.360

> <VdW12>
14.787

> <Bond>
0.471

> <Angle>
5.445

> <Pdih>
9.685

> <Idih>
0.000

> <Tether>
0.000

$$$$
VeraChem MOL file


 22 22  0  0  0  0  0  0  0  0999 V2000     
   21.4877   20.1703   23.2735 C   0  0  0  0  0  0  0  0  0  0  0  0
   21.0221   21.1627   23.2165 H   0  0  0  0  0  0  0  0  0  0  0  0
   22.4767   20.3445   23.7186 H   0  0  0  0  0  0  0  0  0  0  0  0
   21.6829   19.6005   21.8454 C   0  0  0  0  0  0  0  0  0  0  0  0
   22.3194   20.3048   21.2925 H   0  0  0  0  0  0  0  0  0  0  0  0
   22.2531   18.6630   21.8984 H   0  0  0  0  0  0  0  0  0  0  0  0
   20.3893   19.3652   21.0172 C   0  0  0  0  0  0  0  0  0  0  0  0
   20.1440   18.2954   20.9981 H   0  0  0  0  0  0  0  0  0  0  0  0
   20.6003   19.6256   19.9711 H   0  0  0  0  0  0  0  0  0  0  0  0
   19.1507   20.1715   21.4900 C   0  0  0  0  0  0  0  0  0  0  0  0
   19.4202   21.2321   21.5685 H   0  0  0  0  0  0  0  0  0  0  0  0
   18.3906   20.1319   20.6982 H   0  0  0  0  0  0  0  0  0  0  0  0
   18.5076   19.7069   22.8296 C   0  0  0  0  0  0  0  0  0  0  0  0
   18.3175   20.6002   23.4419 H   0  0  0  0  0  0  0  0  0  0  0  0
   19.3439   18.7121   23.6729 C   0  0  0  0  0  0  0  0  0  0  0  0
   18.7382   18.3688   24.5217 H   0  0  0  0  0  0  0  0  0  0  0  0
   19.5475   17.8095   23.0844 H   0  0  0  0  0  0  0  0  0  0  0  0
   20.6741   19.2727   24.2352 C   0  0  0  0  0  0  0  0  0  0  0  0
   20.4599   19.8518   25.1438 H   0  0  0  0  0  0  0  0  0  0  0  0
   21.2996   18.4287   24.5563 H   0  0  0  0  0  0  0  0  0  0  0  0
   17.2642   19.0788   22.5386 O   0  0  0  0  0  0  0  0  0  0  0  0
   16.8556   18.8487   23.3989 H   0  0  0  0  0  0  0  0  0  0  0  0
  1  2  1  0  0  0  0
  1  3  1  0  0  0  0
  1  4  1  0  0  0  0
  4  5  1  0  0  0  0
  4  6  1  0  0  0  0
  4  7  1  0  0  0  0
  7  8  1  0  0  0  0
  7  9  1  0  0  0  0
  7 10  1  0  0  0  0
 10 11  1  0  0  0  0
 10 12  1  0  0  0  0
 10 13  1  0  0  0  0
 13 14  1  0  0  0  0
 13 15  1  0  0  0  0
 15 16  1  0  0  0  0
 15 17  1  0  0  0  0
  1 18  1  0  0  0  0
 15 18  1  0  0  0  0
 18 19  1  0  0  0  0
 18 20  1  0  0  0  0
 13 21  1  0  0  0  0
 21 22  1  0  0  0  0
M  END
> <VConfSearch Rank>
465

> <Conf_Id>
141

> <Delta U+W>
0.000

> <U+W>
6.423

> <U>
8.781

> <W>
-2.358

> <W(PB)>
-4.373

> <W(SA)>
2.015

> <Valence>
13.328

> <Coulomb>
-8.387

> <VdW>
3.840

> <VdW6>
-9.744

> <VdW12>
13.584

> <Bond>
0.436

> <Angle>
3.478

> <Pdih>
9.415

> <Idih>
0.000

> <Tether>
0.000

$$$$
VeraChem MOL file


 22 22  0  0  0  0  0  0  0  0999 V2000     
   19.5263   18.0890   23.3893 C   0  0  0  0  0  0  0  0  0  0  0  0
   18.7467   18.6206   23.9515 H   0  0  0  0  0  0  0  0  0  0  0  0
   19.4143   17.0266   23.6453 H   0  0  0  0  0  0  0  0  0  0  0  0
   20.9374   18.5351   23.8427 C   0  0  0  0  0  0  0  0  0  0  0  0
   21.1054   18.1762   24.8673 H   0  0  0  0  0  0  0  0  0  0  0  0
   21.6941   18.0344   23.2233 H   0  0  0  0  0  0  0  0  0  0  0  0
   21.1857   20.0609   23.8194 C   0  0  0  0  0  0  0  0  0  0  0  0
   22.2339   20.2414   24.0943 H   0  0  0  0  0  0  0  0  0  0  0  0
   20.5837   20.5405   24.6032 H   0  0  0  0  0  0  0  0  0  0  0  0
   20.9057   20.7485   22.4608 C   0  0  0  0  0  0  0  0  0  0  0  0
   21.3330   21.7589   22.5058 H   0  0  0  0  0  0  0  0  0  0  0  0
   21.4319   20.2303   21.6487 H   0  0  0  0  0  0  0  0  0  0  0  0
   19.3966   20.8556   22.1462 C   0  0  0  0  0  0  0  0  0  0  0  0
   18.8554   20.9816   23.0950 H   0  0  0  0  0  0  0  0  0  0  0  0
   18.8059   19.6316   21.4099 C   0  0  0  0  0  0  0  0  0  0  0  0
   17.7153   19.6686   21.5279 H   0  0  0  0  0  0  0  0  0  0  0  0
   18.9953   19.7294   20.3325 H   0  0  0  0  0  0  0  0  0  0  0  0
   19.3085   18.2387   21.8654 C   0  0  0  0  0  0  0  0  0  0  0  0
   18.5771   17.4890   21.5342 H   0  0  0  0  0  0  0  0  0  0  0  0
   20.2402   17.9936   21.3375 H   0  0  0  0  0  0  0  0  0  0  0  0
   19.1774   22.0047   21.3372 O   0  0  0  0  0  0  0  0  0  0  0  0
   19.4893   22.7772   21.8535 H   0  0  0  0  0  0  0  0  0  0  0  0
  1  2  1  0  0  0  0
  1  3  1  0  0  0  0
  1  4  1  0  0  0  0
  4  5  1  0  0  0  0
  4  6  1  0  0  0  0
  4  7  1  0  0  0  0
  7  8  1  0  0  0  0
  7  9  1  0  0  0  0
  7 10  1  0  0  0  0
 10 11  1  0  0  0  0
 10 12  1  0  0  0  0
 10 13  1  0  0  0  0
 13 14  1  0  0  0  0
 13 15  1  0  0  0  0
 15 16  1  0  0  0  0
 15 17  1  0  0  0  0
  1 18  1  0  0  0  0
 15 18  1  0  0  0  0
 18 19  1  0  0  0  0
 18 20  1  0  0  0  0
 13 21  1  0  0  0  0
 21 22  1  0  0  0  0
M  END
> <VConfSearch Rank>
466

> <Conf_Id>
144

> <Delta U+W>
-3.291

> <U+W>
3.132

> <U>
5.411

> <W>
-2.279

> <W(PB)>
-4.300

> <W(SA)>
2.021

> <Valence>
11.909

> <Coulomb>
-8.733

> <VdW>
2.236

> <VdW6>
-8.936

> <VdW12>
11.172

> <Bond>
0.223

> <Angle>
2.457

> <Pdih>
9.228

> <Idih>
0.000

> <Tether>
0.000

$$$$
VeraChem MOL file


 22 22  0  0  0  0  0  0  0  0999 V2000     
   21.5062   18.8584   22.3941 C   0  0  0  0  0  0  0  0  0  0  0  0
   22.5882   18.6893   22.3073 H   0  0  0  0  0  0  0  0  0  0  0  0
   21.0279   17.9021   22.1424 H   0  0  0  0  0  0  0  0  0  0  0  0
   21.1108   19.9564   21.3791 C   0  0  0  0  0  0  0  0  0  0  0  0
   21.3169   20.9451   21.8113 H   0  0  0  0  0  0  0  0  0  0  0  0
   21.7645   19.8793   20.4996 H   0  0  0  0  0  0  0  0  0  0  0  0
   19.6437   19.8995   20.8889 C   0  0  0  0  0  0  0  0  0  0  0  0
   19.5696   19.1753   20.0661 H   0  0  0  0  0  0  0  0  0  0  0  0
   19.3910   20.8750   20.4512 H   0  0  0  0  0  0  0  0  0  0  0  0
   18.5784   19.5326   21.9514 C   0  0  0  0  0  0  0  0  0  0  0  0
   17.5990   19.8496   21.5683 H   0  0  0  0  0  0  0  0  0  0  0  0
   18.5226   18.4403   22.0436 H   0  0  0  0  0  0  0  0  0  0  0  0
   18.8108   20.1520   23.3478 C   0  0  0  0  0  0  0  0  0  0  0  0
   19.2621   21.1484   23.2382 H   0  0  0  0  0  0  0  0  0  0  0  0
   19.7102   19.2711   24.2445 C   0  0  0  0  0  0  0  0  0  0  0  0
   19.6296   19.6263   25.2805 H   0  0  0  0  0  0  0  0  0  0  0  0
   19.3294   18.2415   24.2465 H   0  0  0  0  0  0  0  0  0  0  0  0
   21.2087   19.2568   23.8597 C   0  0  0  0  0  0  0  0  0  0  0  0
   21.6468   20.2429   24.0658 H   0  0  0  0  0  0  0  0  0  0  0  0
   21.7273   18.5538   24.5258 H   0  0  0  0  0  0  0  0  0  0  0  0
   17.5510   20.2869   23.9920 O   0  0  0  0  0  0  0  0  0  0  0  0
   17.1817   19.3831   24.0694 H   0  0  0  0  0  0  0  0  0  0  0  0
  1  2  1  0  0  0  0
  1  3  1  0  0  0  0
  1  4  1  0  0  0  0
  4  5  1  0  0  0  0
  4  6  1  0  0  0  0
  4  7  1  0  0  0  0
  7  8  1  0  0  0  0
  7  9  1  0  0  0  0
  7 10  1  0  0  0  0
 10 11  1  0  0  0  0
 10 12  1  0  0  0  0
 10 13  1  0  0  0  0
 13 14  1  0  0  0  0
 13 15  1  0  0  0  0
 15 16  1  0  0  0  0
 15 17  1  0  0  0  0
  1 18  1  0  0  0  0
 15 18  1  0  0  0  0
 18 19  1  0  0  0  0
 18 20  1  0  0  0  0
 13 21  1  0  0  0  0
 21 22  1  0  0  0  0
M  END
> <VConfSearch Rank>
467

> <Conf_Id>
76

> <Delta U+W>
-3.175

> <U+W>
3.248

> <U>
5.336

> <W>
-2.088

> <W(PB)>
-4.098

> <W(SA)>
2.010

> <Valence>
12.390

> <Coulomb>
-9.270

> <VdW>
2.216

> <VdW6>
-8.967

> <VdW12>
11.183

> <Bond>
0.218

> <Angle>
2.426

> <Pdih>
9.745

> <Idih>
0.000

> <Tether>
0.000

$$$$
VeraChem MOL file


 22 22  0  0  0  0  0  0  0  0999 V2000     
   20.3898   19.6560   24.5329 C   0  0  0  0  0  0  0  0  0  0  0  0
   19.9405   19.0346   25.3195 H   0  0  0  0  0  0  0  0  0  0  0  0
   21.1278   20.2921   25.0405 H   0  0  0  0  0  0  0  0  0  0  0  0
   19.2814   20.5544   23.9335 C   0  0  0  0  0  0  0  0  0  0  0  0
   18.3364   19.9957   23.8972 H   0  0  0  0  0  0  0  0  0  0  0  0
   19.1046   21.3854   24.6298 H   0  0  0  0  0  0  0  0  0  0  0  0
   19.5925   21.1306   22.5325 C   0  0  0  0  0  0  0  0  0  0  0  0
   20.6554   21.3932   22.4420 H   0  0  0  0  0  0  0  0  0  0  0  0
   19.0357   22.0705   22.4190 H   0  0  0  0  0  0  0  0  0  0  0  0
   19.1591   20.1838   21.3846 C   0  0  0  0  0  0  0  0  0  0  0  0
   18.1157   19.8815   21.5407 H   0  0  0  0  0  0  0  0  0  0  0  0
   19.1644   20.7492   20.4434 H   0  0  0  0  0  0  0  0  0  0  0  0
   20.0197   18.9158   21.1833 C   0  0  0  0  0  0  0  0  0  0  0  0
   19.4806   18.2768   20.4690 H   0  0  0  0  0  0  0  0  0  0  0  0
   20.2582   18.0714   22.4603 C   0  0  0  0  0  0  0  0  0  0  0  0
   19.2950   17.7780   22.8975 H   0  0  0  0  0  0  0  0  0  0  0  0
   20.7409   17.1349   22.1525 H   0  0  0  0  0  0  0  0  0  0  0  0
   21.1471   18.7439   23.5385 C   0  0  0  0  0  0  0  0  0  0  0  0
   21.6533   17.9604   24.1184 H   0  0  0  0  0  0  0  0  0  0  0  0
   21.9521   19.3167   23.0596 H   0  0  0  0  0  0  0  0  0  0  0  0
   21.2656   19.2815   20.5984 O   0  0  0  0  0  0  0  0  0  0  0  0
   21.7963   18.4613   20.5370 H   0  0  0  0  0  0  0  0  0  0  0  0
  1  2  1  0  0  0  0
  1  3  1  0  0  0  0
  1  4  1  0  0  0  0
  4  5  1  0  0  0  0
  4  6  1  0  0  0  0
  4  7  1  0  0  0  0
  7  8  1  0  0  0  0
  7  9  1  0  0  0  0
  7 10  1  0  0  0  0
 10 11  1  0  0  0  0
 10 12  1  0  0  0  0
 10 13  1  0  0  0  0
 13 14  1  0  0  0  0
 13 15  1  0  0  0  0
 15 16  1  0  0  0  0
 15 17  1  0  0  0  0
  1 18  1  0  0  0  0
 15 18  1  0  0  0  0
 18 19  1  0  0  0  0
 18 20  1  0  0  0  0
 13 21  1  0  0  0  0
 21 22  1  0  0  0  0
M  END
> <VConfSearch Rank>
468

> <Conf_Id>
95

> <Delta U+W>
-2.289

> <U+W>
4.134

> <U>
6.373

> <W>
-2.240

> <W(PB)>
-4.254

> <W(SA)>
2.015

> <Valence>
12.093

> <Coulomb>
-8.058

> <VdW>
2.339

> <VdW6>
-9.683

> <VdW12>
12.022

> <Bond>
0.268

> <Angle>
3.005

> <Pdih>
8.820

> <Idih>
0.000

> <Tether>
0.000

$$$$
VeraChem MOL file


 22 22  0  0  0  0  0  0  0  0999 V2000     
   19.5929   21.2318   23.6443 C   0  0  0  0  0  0  0  0  0  0  0  0
   18.6658   21.4578   24.1885 H   0  0  0  0  0  0  0  0  0  0  0  0
   20.2392   22.1098   23.7794 H   0  0  0  0  0  0  0  0  0  0  0  0
   19.2498   21.0887   22.1423 C   0  0  0  0  0  0  0  0  0  0  0  0
   18.2650   20.6140   22.0355 H   0  0  0  0  0  0  0  0  0  0  0  0
   19.1360   22.0976   21.7226 H   0  0  0  0  0  0  0  0  0  0  0  0
   20.2902   20.3104   21.3036 C   0  0  0  0  0  0  0  0  0  0  0  0
   21.3123   20.5360   21.6371 H   0  0  0  0  0  0  0  0  0  0  0  0
   20.2232   20.6633   20.2656 H   0  0  0  0  0  0  0  0  0  0  0  0
   20.0326   18.7824   21.3004 C   0  0  0  0  0  0  0  0  0  0  0  0
   18.9810   18.5961   21.0469 H   0  0  0  0  0  0  0  0  0  0  0  0
   20.6128   18.3303   20.4855 H   0  0  0  0  0  0  0  0  0  0  0  0
   20.3659   18.0318   22.6101 C   0  0  0  0  0  0  0  0  0  0  0  0
   19.9676   17.0126   22.5023 H   0  0  0  0  0  0  0  0  0  0  0  0
   19.7351   18.6326   23.8913 C   0  0  0  0  0  0  0  0  0  0  0  0
   18.6436   18.6770   23.7861 H   0  0  0  0  0  0  0  0  0  0  0  0
   19.9290   17.9272   24.7097 H   0  0  0  0  0  0  0  0  0  0  0  0
   20.2875   20.0200   24.3102 C   0  0  0  0  0  0  0  0  0  0  0  0
   20.1828   20.1273   25.3982 H   0  0  0  0  0  0  0  0  0  0  0  0
   21.3674   20.0656   24.1172 H   0  0  0  0  0  0  0  0  0  0  0  0
   21.7799   17.9423   22.7564 O   0  0  0  0  0  0  0  0  0  0  0  0
   22.1269   17.5750   21.9181 H   0  0  0  0  0  0  0  0  0  0  0  0
  1  2  1  0  0  0  0
  1  3  1  0  0  0  0
  1  4  1  0  0  0  0
  4  5  1  0  0  0  0
  4  6  1  0  0  0  0
  4  7  1  0  0  0  0
  7  8  1  0  0  0  0
  7  9  1  0  0  0  0
  7 10  1  0  0  0  0
 10 11  1  0  0  0  0
 10 12  1  0  0  0  0
 10 13  1  0  0  0  0
 13 14  1  0  0  0  0
 13 15  1  0  0  0  0
 15 16  1  0  0  0  0
 15 17  1  0  0  0  0
  1 18  1  0  0  0  0
 15 18  1  0  0  0  0
 18 19  1  0  0  0  0
 18 20  1  0  0  0  0
 13 21  1  0  0  0  0
 21 22  1  0  0  0  0
M  END
> <VConfSearch Rank>
469

> <Conf_Id>
41

> <Delta U+W>
-2.114

> <U+W>
4.310

> <U>
6.598

> <W>
-2.289

> <W(PB)>
-4.294

> <W(SA)>
2.005

> <Valence>
12.082

> <Coulomb>
-7.801

> <VdW>
2.317

> <VdW6>
-9.658

> <VdW12>
11.975

> <Bond>
0.267

> <Angle>
3.051

> <Pdih>
8.764

> <Idih>
0.000

> <Tether>
0.000

$$$$
VeraChem MOL file


 22 22  0  0  0  0  0  0  0  0999 V2000     
   19.1683   18.2225   22.2628 C   0  0  0  0  0  0  0  0  0  0  0  0
   18.4959   17.5106   21.7652 H   0  0  0  0  0  0  0  0  0  0  0  0
   19.8105   17.6273   22.9265 H   0  0  0  0  0  0  0  0  0  0  0  0
   18.2986   19.2040   23.0799 C   0  0  0  0  0  0  0  0  0  0  0  0
   17.7111   19.8314   22.3959 H   0  0  0  0  0  0  0  0  0  0  0  0
   17.5676   18.6251   23.6604 H   0  0  0  0  0  0  0  0  0  0  0  0
   19.0872   20.1044   24.0559 C   0  0  0  0  0  0  0  0  0  0  0  0
   19.5020   19.4898   24.8660 H   0  0  0  0  0  0  0  0  0  0  0  0
   18.3740   20.7854   24.5393 H   0  0  0  0  0  0  0  0  0  0  0  0
   20.2116   20.9557   23.4062 C   0  0  0  0  0  0  0  0  0  0  0  0
   19.8147   21.5117   22.5474 H   0  0  0  0  0  0  0  0  0  0  0  0
   20.5161   21.7164   24.1365 H   0  0  0  0  0  0  0  0  0  0  0  0
   21.4910   20.1857   22.9887 C   0  0  0  0  0  0  0  0  0  0  0  0
   22.2824   20.9376   22.8563 H   0  0  0  0  0  0  0  0  0  0  0  0
   21.4064   19.4085   21.6494 C   0  0  0  0  0  0  0  0  0  0  0  0
   21.8200   20.0489   20.8595 H   0  0  0  0  0  0  0  0  0  0  0  0
   22.0766   18.5402   21.6966 H   0  0  0  0  0  0  0  0  0  0  0  0
   20.0100   18.9313   21.1787 C   0  0  0  0  0  0  0  0  0  0  0  0
   19.4462   19.7783   20.7650 H   0  0  0  0  0  0  0  0  0  0  0  0
   20.1575   18.2380   20.3395 H   0  0  0  0  0  0  0  0  0  0  0  0
   21.9040   19.3041   24.0295 O   0  0  0  0  0  0  0  0  0  0  0  0
   22.7320   18.8786   23.7276 H   0  0  0  0  0  0  0  0  0  0  0  0
  1  2  1  0  0  0  0
  1  3  1  0  0  0  0
  1  4  1  0  0  0  0
  4  5  1  0  0  0  0
  4  6  1  0  0  0  0
  4  7  1  0  0  0  0
  7  8  1  0  0  0  0
  7  9  1  0  0  0  0
  7 10  1  0  0  0  0
 10 11  1  0  0  0  0
 10 12  1  0  0  0  0
 10 13  1  0  0  0  0
 13 14  1  0  0  0  0
 13 15  1  0  0  0  0
 15 16  1  0  0  0  0
 15 17  1  0  0  0  0
  1 18  1  0  0  0  0
 15 18  1  0  0  0  0
 18 19  1  0  0  0  0
 18 20  1  0  0  0  0
 13 21  1  0  0  0  0
 21 22  1  0  0  0  0
M  END
> <VConfSearch Rank>
470

> <Conf_Id>
104

> <Delta U+W>
-1.172

> <U+W>
5.252

> <U>
7.482

> <W>
-2.230

> <W(PB)>
-4.220

> <W(SA)>
1.990

> <Valence>
12.309

> <Coulomb>
-7.084

> <VdW>
2.258

> <VdW6>
-9.770

> <VdW12>
12.028

> <Bond>
0.284

> <Angle>
3.491

> <Pdih>
8.535

> <Idih>
0.000

> <Tether>
0.000

$$$$
VeraChem MOL file


 22 22  0  0  0  0  0  0  0  0999 V2000     
   18.4219   19.4877   22.6814 C   0  0  0  0  0  0  0  0  0  0  0  0
   18.3175   20.0425   21.7392 H   0  0  0  0  0  0  0  0  0  0  0  0
   17.3995   19.2623   23.0143 H   0  0  0  0  0  0  0  0  0  0  0  0
   19.0901   20.3628   23.7664 C   0  0  0  0  0  0  0  0  0  0  0  0
   18.3331   21.0398   24.1857 H   0  0  0  0  0  0  0  0  0  0  0  0
   19.3992   19.7274   24.6067 H   0  0  0  0  0  0  0  0  0  0  0  0
   20.2845   21.2277   23.2899 C   0  0  0  0  0  0  0  0  0  0  0  0
   20.9334   21.4304   24.1532 H   0  0  0  0  0  0  0  0  0  0  0  0
   19.9005   22.2085   22.9778 H   0  0  0  0  0  0  0  0  0  0  0  0
   21.1463   20.6706   22.1245 C   0  0  0  0  0  0  0  0  0  0  0  0
   20.6237   20.8472   21.1755 H   0  0  0  0  0  0  0  0  0  0  0  0
   22.0632   21.2711   22.0641 H   0  0  0  0  0  0  0  0  0  0  0  0
   21.5518   19.1806   22.1981 C   0  0  0  0  0  0  0  0  0  0  0  0
   22.4400   19.0517   21.5630 H   0  0  0  0  0  0  0  0  0  0  0  0
   20.4639   18.2343   21.6420 C   0  0  0  0  0  0  0  0  0  0  0  0
   20.2267   18.5371   20.6138 H   0  0  0  0  0  0  0  0  0  0  0  0
   20.8946   17.2276   21.5616 H   0  0  0  0  0  0  0  0  0  0  0  0
   19.1482   18.1406   22.4538 C   0  0  0  0  0  0  0  0  0  0  0  0
   18.4672   17.4686   21.9140 H   0  0  0  0  0  0  0  0  0  0  0  0
   19.3401   17.6529   23.4191 H   0  0  0  0  0  0  0  0  0  0  0  0
   21.8808   18.8185   23.5303 O   0  0  0  0  0  0  0  0  0  0  0  0
   21.0771   19.0378   24.0425 H   0  0  0  0  0  0  0  0  0  0  0  0
  1  2  1  0  0  0  0
  1  3  1  0  0  0  0
  1  4  1  0  0  0  0
  4  5  1  0  0  0  0
  4  6  1  0  0  0  0
  4  7  1  0  0  0  0
  7  8  1  0  0  0  0
  7  9  1  0  0  0  0
  7 10  1  0  0  0  0
 10 11  1  0  0  0  0
 10 12  1  0  0  0  0
 10 13  1  0  0  0  0
 13 14  1  0  0  0  0
 13 15  1  0  0  0  0
 15 16  1  0  0  0  0
 15 17  1  0  0  0  0
  1 18  1  0  0  0  0
 15 18  1  0  0  0  0
 18 19  1  0  0  0  0
 18 20  1  0  0  0  0
 13 21  1  0  0  0  0
 21 22  1  0  0  0  0
M  END
> <VConfSearch Rank>
471

> <Conf_Id>
99

> <Delta U+W>
-3.852

> <U+W>
2.572

> <U>
3.922

> <W>
-1.350

> <W(PB)>
-3.345

> <W(SA)>
1.995

> <Valence>
12.571

> <Coulomb>
-10.581

> <VdW>
1.932

> <VdW6>
-10.483

> <VdW12>
12.415

> <Bond>
0.268

> <Angle>
3.728

> <Pdih>
8.575

> <Idih>
0.000

> <Tether>
0.000

$$$$
VeraChem MOL file


 22 22  0  0  0  0  0  0  0  0999 V2000     
   19.7119   18.5138   23.8954 C   0  0  0  0  0  0  0  0  0  0  0  0
   19.5363   17.4945   24.2660 H   0  0  0  0  0  0  0  0  0  0  0  0
   19.6113   19.1577   24.7793 H   0  0  0  0  0  0  0  0  0  0  0  0
   18.5962   18.8446   22.8611 C   0  0  0  0  0  0  0  0  0  0  0  0
   17.9376   17.9684   22.7841 H   0  0  0  0  0  0  0  0  0  0  0  0
   17.9534   19.6493   23.2422 H   0  0  0  0  0  0  0  0  0  0  0  0
   19.0792   19.1993   21.4315 C   0  0  0  0  0  0  0  0  0  0  0  0
   18.2059   19.2173   20.7653 H   0  0  0  0  0  0  0  0  0  0  0  0
   19.7070   18.3888   21.0410 H   0  0  0  0  0  0  0  0  0  0  0  0
   19.8205   20.5566   21.2800 C   0  0  0  0  0  0  0  0  0  0  0  0
   20.4338   20.5128   20.3707 H   0  0  0  0  0  0  0  0  0  0  0  0
   19.0746   21.3397   21.0894 H   0  0  0  0  0  0  0  0  0  0  0  0
   20.7132   21.0377   22.4504 C   0  0  0  0  0  0  0  0  0  0  0  0
   21.3144   21.8758   22.0699 H   0  0  0  0  0  0  0  0  0  0  0  0
   21.7053   19.9981   23.0276 C   0  0  0  0  0  0  0  0  0  0  0  0
   22.5414   19.8884   22.3251 H   0  0  0  0  0  0  0  0  0  0  0  0
   22.1450   20.4297   23.9367 H   0  0  0  0  0  0  0  0  0  0  0  0
   21.1680   18.5802   23.3680 C   0  0  0  0  0  0  0  0  0  0  0  0
   21.2762   17.9239   22.4956 H   0  0  0  0  0  0  0  0  0  0  0  0
   21.8314   18.1427   24.1264 H   0  0  0  0  0  0  0  0  0  0  0  0
   19.8971   21.5472   23.4933 O   0  0  0  0  0  0  0  0  0  0  0  0
   19.3866   20.7694   23.7954 H   0  0  0  0  0  0  0  0  0  0  0  0
  1  2  1  0  0  0  0
  1  3  1  0  0  0  0
  1  4  1  0  0  0  0
  4  5  1  0  0  0  0
  4  6  1  0  0  0  0
  4  7  1  0  0  0  0
  7  8  1  0  0  0  0
  7  9  1  0  0  0  0
  7 10  1  0  0  0  0
 10 11  1  0  0  0  0
 10 12  1  0  0  0  0
 10 13  1  0  0  0  0
 13 14  1  0  0  0  0
 13 15  1  0  0  0  0
 15 16  1  0  0  0  0
 15 17  1  0  0  0  0
  1 18  1  0  0  0  0
 15 18  1  0  0  0  0
 18 19  1  0  0  0  0
 18 20  1  0  0  0  0
 13 21  1  0  0  0  0
 21 22  1  0  0  0  0
M  END
> <VConfSearch Rank>
472

> <Conf_Id>
98

> <Delta U+W>
0.930

> <U+W>
7.353

> <U>
8.455

> <W>
-1.102

> <W(PB)>
-3.101

> <W(SA)>
2.000

> <Valence>
15.601

> <Coulomb>
-10.573

> <VdW>
3.427

> <VdW6>
-11.360

> <VdW12>
14.787

> <Bond>
0.471

> <Angle>
5.445

> <Pdih>
9.685

> <Idih>
0.000

> <Tether>
0.000

$$$$
VeraChem MOL file


 22 22  0  0  0  0  0  0  0  0999 V2000     
   18.6586   20.3669   23.3020 C   0  0  0  0  0  0  0  0  0  0  0  0
   18.1204   20.0958   22.3846 H   0  0  0  0  0  0  0  0  0  0  0  0
   17.9192   20.8925   23.9216 H   0  0  0  0  0  0  0  0  0  0  0  0
   19.8076   21.3507   22.9642 C   0  0  0  0  0  0  0  0  0  0  0  0
   19.3576   22.2355   22.4935 H   0  0  0  0  0  0  0  0  0  0  0  0
   20.2688   21.7106   23.8939 H   0  0  0  0  0  0  0  0  0  0  0  0
   20.9171   20.8119   22.0190 C   0  0  0  0  0  0  0  0  0  0  0  0
   21.8153   20.5606   22.5979 H   0  0  0  0  0  0  0  0  0  0  0  0
   21.2285   21.6299   21.3552 H   0  0  0  0  0  0  0  0  0  0  0  0
   20.5053   19.5950   21.1489 C   0  0  0  0  0  0  0  0  0  0  0  0
   19.5721   19.8290   20.6216 H   0  0  0  0  0  0  0  0  0  0  0  0
   21.2536   19.4698   20.3548 H   0  0  0  0  0  0  0  0  0  0  0  0
   20.3407   18.2435   21.9040 C   0  0  0  0  0  0  0  0  0  0  0  0
   19.4029   17.7789   21.5667 H   0  0  0  0  0  0  0  0  0  0  0  0
   20.3072   18.3318   23.4504 C   0  0  0  0  0  0  0  0  0  0  0  0
   20.3119   17.3152   23.8647 H   0  0  0  0  0  0  0  0  0  0  0  0
   21.2337   18.7921   23.8140 H   0  0  0  0  0  0  0  0  0  0  0  0
   19.0897   19.0815   24.0467 C   0  0  0  0  0  0  0  0  0  0  0  0
   18.2301   18.3981   24.0742 H   0  0  0  0  0  0  0  0  0  0  0  0
   19.3117   19.3288   25.0937 H   0  0  0  0  0  0  0  0  0  0  0  0
   21.4257   17.3939   21.5489 O   0  0  0  0  0  0  0  0  0  0  0  0
   21.2675   16.5337   21.9908 H   0  0  0  0  0  0  0  0  0  0  0  0
  1  2  1  0  0  0  0
  1  3  1  0  0  0  0
  1  4  1  0  0  0  0
  4  5  1  0  0  0  0
  4  6  1  0  0  0  0
  4  7  1  0  0  0  0
  7  8  1  0  0  0  0
  7  9  1  0  0  0  0
  7 10  1  0  0  0  0
 10 11  1  0  0  0  0
 10 12  1  0  0  0  0
 10 13  1  0  0  0  0
 13 14  1  0  0  0  0
 13 15  1  0  0  0  0
 15 16  1  0  0  0  0
 15 17  1  0  0  0  0
  1 18  1  0  0  0  0
 15 18  1  0  0  0  0
 18 19  1  0  0  0  0
 18 20  1  0  0  0  0
 13 21  1  0  0  0  0
 21 22  1  0  0  0  0
M  END
> <VConfSearch Rank>
473

> <Conf_Id>
141

> <Delta U+W>
0.000

> <U+W>
6.423

> <U>
8.781

> <W>
-2.358

> <W(PB)>
-4.373

> <W(SA)>
2.015

> <Valence>
13.328

> <Coulomb>
-8.387

> <VdW>
3.840

> <VdW6>
-9.744

> <VdW12>
13.584

> <Bond>
0.436

> <Angle>
3.478

> <Pdih>
9.415

> <Idih>
0.000

> <Tether>
0.000

$$$$
VeraChem MOL file


 22 22  0  0  0  0  0  0  0  0999 V2000     
   19.3331   20.4885   24.0238 C   0  0  0  0  0  0  0  0  0  0  0  0
   18.6093   20.9600   23.3452 H   0  0  0  0  0  0  0  0  0  0  0  0
   19.0903   20.8566   25.0300 H   0  0  0  0  0  0  0  0  0  0  0  0
   20.7764   20.9400   23.6941 C   0  0  0  0  0  0  0  0  0  0  0  0
   20.8775   22.0035   23.9503 H   0  0  0  0  0  0  0  0  0  0  0  0
   21.4823   20.4076   24.3460 H   0  0  0  0  0  0  0  0  0  0  0  0
   21.2040   20.7565   22.2197 C   0  0  0  0  0  0  0  0  0  0  0  0
   22.2597   21.0471   22.1307 H   0  0  0  0  0  0  0  0  0  0  0  0
   20.6453   21.4602   21.5875 H   0  0  0  0  0  0  0  0  0  0  0  0
   21.0381   19.3208   21.6644 C   0  0  0  0  0  0  0  0  0  0  0  0
   21.5808   19.2688   20.7114 H   0  0  0  0  0  0  0  0  0  0  0  0
   21.5176   18.5907   22.3292 H   0  0  0  0  0  0  0  0  0  0  0  0
   19.5598   18.9424   21.4212 C   0  0  0  0  0  0  0  0  0  0  0  0
   19.0160   19.8513   21.1260 H   0  0  0  0  0  0  0  0  0  0  0  0
   18.8453   18.3257   22.6452 C   0  0  0  0  0  0  0  0  0  0  0  0
   17.7643   18.3996   22.4697 H   0  0  0  0  0  0  0  0  0  0  0  0
   19.0693   17.2516   22.6937 H   0  0  0  0  0  0  0  0  0  0  0  0
   19.1691   18.9506   24.0253 C   0  0  0  0  0  0  0  0  0  0  0  0
   18.3617   18.6786   24.7189 H   0  0  0  0  0  0  0  0  0  0  0  0
   20.0769   18.4870   24.4347 H   0  0  0  0  0  0  0  0  0  0  0  0
   19.4965   18.0035   20.3546 O   0  0  0  0  0  0  0  0  0  0  0  0
   19.8859   18.4418   19.5691 H   0  0  0  0  0  0  0  0  0  0  0  0
  1  2  1  0  0  0  0
  1  3  1  0  0  0  0
  1  4  1  0  0  0  0
  4  5  1  0  0  0  0
  4  6  1  0  0  0  0
  4  7  1  0  0  0  0
  7  8  1  0  0  0  0
  7  9  1  0  0  0  0
  7 10  1  0  0  0  0
 10 11  1  0  0  0  0
 10 12  1  0  0  0  0
 10 13  1  0  0  0  0
 13 14  1  0  0  0  0
 13 15  1  0  0  0  0
 15 16  1  0  0  0  0
 15 17  1  0  0  0  0
  1 18  1  0  0  0  0
 15 18  1  0  0  0  0
 18 19  1  0  0  0  0
 18 20  1  0  0  0  0
 13 21  1  0  0  0  0
 21 22  1  0  0  0  0
M  END
> <VConfSearch Rank>
474

> <Conf_Id>
144

> <Delta U+W>
-3.291

> <U+W>
3.132

> <U>
5.411

> <W>
-2.279

> <W(PB)>
-4.300

> <W(SA)>
2.021

> <Valence>
11.909

> <Coulomb>
-8.733

> <VdW>
2.236

> <VdW6>
-8.936

> <VdW12>
11.172

> <Bond>
0.223

> <Angle>
2.457

> <Pdih>
9.228

> <Idih>
0.000

> <Tether>
0.000

$$$$
VeraChem MOL file


 22 22  0  0  0  0  0  0  0  0999 V2000     
   19.2017   18.0399   22.2423 C   0  0  0  0  0  0  0  0  0  0  0  0
   18.6825   17.0722   22.2728 H   0  0  0  0  0  0  0  0  0  0  0  0
   19.4486   18.2192   21.1870 H   0  0  0  0  0  0  0  0  0  0  0  0
   20.4857   17.9210   23.0962 C   0  0  0  0  0  0  0  0  0  0  0  0
   20.2354   18.0699   24.1554 H   0  0  0  0  0  0  0  0  0  0  0  0
   20.8647   16.8922   23.0267 H   0  0  0  0  0  0  0  0  0  0  0  0
   21.6326   18.8795   22.6939 C   0  0  0  0  0  0  0  0  0  0  0  0
   22.1972   18.4329   21.8640 H   0  0  0  0  0  0  0  0  0  0  0  0
   22.3374   18.9417   23.5344 H   0  0  0  0  0  0  0  0  0  0  0  0
   21.2164   20.3120   22.2780 C   0  0  0  0  0  0  0  0  0  0  0  0
   22.1055   20.9533   22.3469 H   0  0  0  0  0  0  0  0  0  0  0  0
   20.9315   20.3111   21.2180 H   0  0  0  0  0  0  0  0  0  0  0  0
   20.0715   20.9263   23.1142 C   0  0  0  0  0  0  0  0  0  0  0  0
   20.1472   20.5782   24.1542 H   0  0  0  0  0  0  0  0  0  0  0  0
   18.6745   20.5788   22.5515 C   0  0  0  0  0  0  0  0  0  0  0  0
   17.9320   21.2372   23.0223 H   0  0  0  0  0  0  0  0  0  0  0  0
   18.6447   20.8069   21.4781 H   0  0  0  0  0  0  0  0  0  0  0  0
   18.2230   19.1155   22.7717 C   0  0  0  0  0  0  0  0  0  0  0  0
   18.0410   18.9479   23.8421 H   0  0  0  0  0  0  0  0  0  0  0  0
   17.2513   18.9783   22.2780 H   0  0  0  0  0  0  0  0  0  0  0  0
   20.2112   22.3406   23.0921 O   0  0  0  0  0  0  0  0  0  0  0  0
   20.1403   22.6110   22.1535 H   0  0  0  0  0  0  0  0  0  0  0  0
  1  2  1  0  0  0  0
  1  3  1  0  0  0  0
  1  4  1  0  0  0  0
  4  5  1  0  0  0  0
  4  6  1  0  0  0  0
  4  7  1  0  0  0  0
  7  8  1  0  0  0  0
  7  9  1  0  0  0  0
  7 10  1  0  0  0  0
 10 11  1  0  0  0  0
 10 12  1  0  0  0  0
 10 13  1  0  0  0  0
 13 14  1  0  0  0  0
 13 15  1  0  0  0  0
 15 16  1  0  0  0  0
 15 17  1  0  0  0  0
  1 18  1  0  0  0  0
 15 18  1  0  0  0  0
 18 19  1  0  0  0  0
 18 20  1  0  0  0  0
 13 21  1  0  0  0  0
 21 22  1  0  0  0  0
M  END
> <VConfSearch Rank>
475

> <Conf_Id>
76

> <Delta U+W>
-3.175

> <U+W>
3.248

> <U>
5.336

> <W>
-2.088

> <W(PB)>
-4.098

> <W(SA)>
2.010

> <Valence>
12.390

> <Coulomb>
-9.270

> <VdW>
2.216

> <VdW6>
-8.967

> <VdW12>
11.183

> <Bond>
0.218

> <Angle>
2.426

> <Pdih>
9.745

> <Idih>
0.000

> <Tether>
0.000

$$$$
VeraChem MOL file


 22 22  0  0  0  0  0  0  0  0999 V2000     
   18.6012   20.7230   22.7620 C   0  0  0  0  0  0  0  0  0  0  0  0
   17.7065   20.6253   23.3918 H   0  0  0  0  0  0  0  0  0  0  0  0
   18.4978   21.6866   22.2446 H   0  0  0  0  0  0  0  0  0  0  0  0
   18.5809   19.5858   21.7127 C   0  0  0  0  0  0  0  0  0  0  0  0
   18.1700   18.6744   22.1677 H   0  0  0  0  0  0  0  0  0  0  0  0
   17.8705   19.8655   20.9228 H   0  0  0  0  0  0  0  0  0  0  0  0
   19.9494   19.2665   21.0672 C   0  0  0  0  0  0  0  0  0  0  0  0
   20.5332   20.1835   20.9083 H   0  0  0  0  0  0  0  0  0  0  0  0
   19.7660   18.8453   20.0696 H   0  0  0  0  0  0  0  0  0  0  0  0
   20.7661   18.2265   21.8756 C   0  0  0  0  0  0  0  0  0  0  0  0
   20.1347   17.3526   22.0808 H   0  0  0  0  0  0  0  0  0  0  0  0
   21.5848   17.8568   21.2444 H   0  0  0  0  0  0  0  0  0  0  0  0
   21.3770   18.7224   23.2060 C   0  0  0  0  0  0  0  0  0  0  0  0
   21.7570   17.8341   23.7310 H   0  0  0  0  0  0  0  0  0  0  0  0
   20.3851   19.4285   24.1641 C   0  0  0  0  0  0  0  0  0  0  0  0
   19.5453   18.7587   24.3899 H   0  0  0  0  0  0  0  0  0  0  0  0
   20.9027   19.5862   25.1191 H   0  0  0  0  0  0  0  0  0  0  0  0
   19.8525   20.7983   23.6690 C   0  0  0  0  0  0  0  0  0  0  0  0
   19.5996   21.4157   24.5415 H   0  0  0  0  0  0  0  0  0  0  0  0
   20.6484   21.3455   23.1468 H   0  0  0  0  0  0  0  0  0  0  0  0
   22.4805   19.5780   22.9261 O   0  0  0  0  0  0  0  0  0  0  0  0
   22.8029   19.9087   23.7893 H   0  0  0  0  0  0  0  0  0  0  0  0
  1  2  1  0  0  0  0
  1  3  1  0  0  0  0
  1  4  1  0  0  0  0
  4  5  1  0  0  0  0
  4  6  1  0  0  0  0
  4  7  1  0  0  0  0
  7  8  1  0  0  0  0
  7  9  1  0  0  0  0
  7 10  1  0  0  0  0
 10 11  1  0  0  0  0
 10 12  1  0  0  0  0
 10 13  1  0  0  0  0
 13 14  1  0  0  0  0
 13 15  1  0  0  0  0
 15 16  1  0  0  0  0
 15 17  1  0  0  0  0
  1 18  1  0  0  0  0
 15 18  1  0  0  0  0
 18 19  1  0  0  0  0
 18 20  1  0  0  0  0
 13 21  1  0  0  0  0
 21 22  1  0  0  0  0
M  END
> <VConfSearch Rank>
476

> <Conf_Id>
95

> <Delta U+W>
-2.289

> <U+W>
4.134

> <U>
6.373

> <W>
-2.240

> <W(PB)>
-4.254

> <W(SA)>
2.015

> <Valence>
12.093

> <Coulomb>
-8.058

> <VdW>
2.339

> <VdW6>
-9.683

> <VdW12>
12.022

> <Bond>
0.268

> <Angle>
3.005

> <Pdih>
8.820

> <Idih>
0.000

> <Tether>
0.000

$$$$
VeraChem MOL file


 22 22  0  0  0  0  0  0  0  0999 V2000     
   19.5028   21.4532   22.8817 C   0  0  0  0  0  0  0  0  0  0  0  0
   18.7380   21.8696   23.5514 H   0  0  0  0  0  0  0  0  0  0  0  0
   19.9321   22.3125   22.3488 H   0  0  0  0  0  0  0  0  0  0  0  0
   18.7994   20.5297   21.8586 C   0  0  0  0  0  0  0  0  0  0  0  0
   17.9669   20.0073   22.3491 H   0  0  0  0  0  0  0  0  0  0  0  0
   18.3358   21.1646   21.0912 H   0  0  0  0  0  0  0  0  0  0  0  0
   19.7194   19.4968   21.1671 C   0  0  0  0  0  0  0  0  0  0  0  0
   20.7093   19.9270   20.9623 H   0  0  0  0  0  0  0  0  0  0  0  0
   19.2837   19.2546   20.1884 H   0  0  0  0  0  0  0  0  0  0  0  0
   19.8437   18.1764   21.9686 C   0  0  0  0  0  0  0  0  0  0  0  0
   18.8392   17.8195   22.2303 H   0  0  0  0  0  0  0  0  0  0  0  0
   20.2644   17.4049   21.3107 H   0  0  0  0  0  0  0  0  0  0  0  0
   20.6978   18.2377   23.2557 C   0  0  0  0  0  0  0  0  0  0  0  0
   20.5405   17.2877   23.7866 H   0  0  0  0  0  0  0  0  0  0  0  0
   20.3244   19.3749   24.2393 C   0  0  0  0  0  0  0  0  0  0  0  0
   19.2691   19.2891   24.5281 H   0  0  0  0  0  0  0  0  0  0  0  0
   20.9011   19.2107   25.1587 H   0  0  0  0  0  0  0  0  0  0  0  0
   20.6237   20.8099   23.7327 C   0  0  0  0  0  0  0  0  0  0  0  0
   20.8038   21.4595   24.5998 H   0  0  0  0  0  0  0  0  0  0  0  0
   21.5637   20.8169   23.1653 H   0  0  0  0  0  0  0  0  0  0  0  0
   22.0753   18.3269   22.9045 O   0  0  0  0  0  0  0  0  0  0  0  0
   22.2523   17.6005   22.2726 H   0  0  0  0  0  0  0  0  0  0  0  0
  1  2  1  0  0  0  0
  1  3  1  0  0  0  0
  1  4  1  0  0  0  0
  4  5  1  0  0  0  0
  4  6  1  0  0  0  0
  4  7  1  0  0  0  0
  7  8  1  0  0  0  0
  7  9  1  0  0  0  0
  7 10  1  0  0  0  0
 10 11  1  0  0  0  0
 10 12  1  0  0  0  0
 10 13  1  0  0  0  0
 13 14  1  0  0  0  0
 13 15  1  0  0  0  0
 15 16  1  0  0  0  0
 15 17  1  0  0  0  0
  1 18  1  0  0  0  0
 15 18  1  0  0  0  0
 18 19  1  0  0  0  0
 18 20  1  0  0  0  0
 13 21  1  0  0  0  0
 21 22  1  0  0  0  0
M  END
> <VConfSearch Rank>
477

> <Conf_Id>
41

> <Delta U+W>
-2.114

> <U+W>
4.310

> <U>
6.598

> <W>
-2.289

> <W(PB)>
-4.294

> <W(SA)>
2.005

> <Valence>
12.082

> <Coulomb>
-7.801

> <VdW>
2.317

> <VdW6>
-9.658

> <VdW12>
11.975

> <Bond>
0.267

> <Angle>
3.051

> <Pdih>
8.764

> <Idih>
0.000

> <Tether>
0.000

$$$$
VeraChem MOL file


 22 22  0  0  0  0  0  0  0  0999 V2000     
   21.2134   18.6082   21.9151 C   0  0  0  0  0  0  0  0  0  0  0  0
   21.7823   17.8047   21.4280 H   0  0  0  0  0  0  0  0  0  0  0  0
   21.6322   19.5526   21.5408 H   0  0  0  0  0  0  0  0  0  0  0  0
   21.4265   18.4824   23.4402 C   0  0  0  0  0  0  0  0  0  0  0  0
   20.9471   17.5634   23.8037 H   0  0  0  0  0  0  0  0  0  0  0  0
   22.5004   18.3593   23.6354 H   0  0  0  0  0  0  0  0  0  0  0  0
   20.9206   19.6875   24.2630 C   0  0  0  0  0  0  0  0  0  0  0  0
   21.5467   20.5642   24.0498 H   0  0  0  0  0  0  0  0  0  0  0  0
   21.0815   19.4630   25.3259 H   0  0  0  0  0  0  0  0  0  0  0  0
   19.4227   20.0428   24.0602 C   0  0  0  0  0  0  0  0  0  0  0  0
   18.8015   19.1486   24.1972 H   0  0  0  0  0  0  0  0  0  0  0  0
   19.1328   20.7310   24.8645 H   0  0  0  0  0  0  0  0  0  0  0  0
   19.0640   20.7320   22.7184 C   0  0  0  0  0  0  0  0  0  0  0  0
   18.0765   21.1958   22.8562 H   0  0  0  0  0  0  0  0  0  0  0  0
   18.9323   19.7945   21.4900 C   0  0  0  0  0  0  0  0  0  0  0  0
   17.8712   19.5402   21.3703 H   0  0  0  0  0  0  0  0  0  0  0  0
   19.1985   20.3535   20.5832 H   0  0  0  0  0  0  0  0  0  0  0  0
   19.7306   18.4674   21.5060 C   0  0  0  0  0  0  0  0  0  0  0  0
   19.2318   17.7399   22.1606 H   0  0  0  0  0  0  0  0  0  0  0  0
   19.6841   18.0356   20.4970 H   0  0  0  0  0  0  0  0  0  0  0  0
   19.9927   21.7737   22.4294 O   0  0  0  0  0  0  0  0  0  0  0  0
   19.6946   22.1955   21.5980 H   0  0  0  0  0  0  0  0  0  0  0  0
  1  2  1  0  0  0  0
  1  3  1  0  0  0  0
  1  4  1  0  0  0  0
  4  5  1  0  0  0  0
  4  6  1  0  0  0  0
  4  7  1  0  0  0  0
  7  8  1  0  0  0  0
  7  9  1  0  0  0  0
  7 10  1  0  0  0  0
 10 11  1  0  0  0  0
 10 12  1  0  0  0  0
 10 13  1  0  0  0  0
 13 14  1  0  0  0  0
 13 15  1  0  0  0  0
 15 16  1  0  0  0  0
 15 17  1  0  0  0  0
  1 18  1  0  0  0  0
 15 18  1  0  0  0  0
 18 19  1  0  0  0  0
 18 20  1  0  0  0  0
 13 21  1  0  0  0  0
 21 22  1  0  0  0  0
M  END
> <VConfSearch Rank>
478

> <Conf_Id>
104

> <Delta U+W>
-1.172

> <U+W>
5.252

> <U>
7.482

> <W>
-2.230

> <W(PB)>
-4.220

> <W(SA)>
1.990

> <Valence>
12.309

> <Coulomb>
-7.084

> <VdW>
2.258

> <VdW6>
-9.770

> <VdW12>
12.028

> <Bond>
0.284

> <Angle>
3.491

> <Pdih>
8.535

> <Idih>
0.000

> <Tether>
0.000

$$$$
VeraChem MOL file


 22 22  0  0  0  0  0  0  0  0999 V2000     
   20.4273   21.0856   23.2433 C   0  0  0  0  0  0  0  0  0  0  0  0
   19.9031   21.5964   22.4243 H   0  0  0  0  0  0  0  0  0  0  0  0
   20.8562   21.8799   23.8694 H   0  0  0  0  0  0  0  0  0  0  0  0
   21.5941   20.2282   22.7023 C   0  0  0  0  0  0  0  0  0  0  0  0
   22.4475   20.8886   22.4952 H   0  0  0  0  0  0  0  0  0  0  0  0
   21.9445   19.5509   23.4922 H   0  0  0  0  0  0  0  0  0  0  0  0
   21.2949   19.4250   21.4111 C   0  0  0  0  0  0  0  0  0  0  0  0
   21.9678   18.5571   21.3776 H   0  0  0  0  0  0  0  0  0  0  0  0
   21.5728   20.0423   20.5458 H   0  0  0  0  0  0  0  0  0  0  0  0
   19.8340   18.9457   21.1938 C   0  0  0  0  0  0  0  0  0  0  0  0
   19.2316   19.7862   20.8255 H   0  0  0  0  0  0  0  0  0  0  0  0
   19.8359   18.2131   20.3763 H   0  0  0  0  0  0  0  0  0  0  0  0
   19.1130   18.3116   22.4054 C   0  0  0  0  0  0  0  0  0  0  0  0
   18.2956   17.6908   22.0114 H   0  0  0  0  0  0  0  0  0  0  0  0
   18.4671   19.3622   23.3367 C   0  0  0  0  0  0  0  0  0  0  0  0
   17.7858   19.9861   22.7437 H   0  0  0  0  0  0  0  0  0  0  0  0
   17.8308   18.8341   24.0589 H   0  0  0  0  0  0  0  0  0  0  0  0
   19.4368   20.2820   24.1192 C   0  0  0  0  0  0  0  0  0  0  0  0
   18.8322   20.9937   24.6976 H   0  0  0  0  0  0  0  0  0  0  0  0
   19.9904   19.6928   24.8628 H   0  0  0  0  0  0  0  0  0  0  0  0
   20.0045   17.4879   23.1410 O   0  0  0  0  0  0  0  0  0  0  0  0
   20.7379   18.0875   23.3837 H   0  0  0  0  0  0  0  0  0  0  0  0
  1  2  1  0  0  0  0
  1  3  1  0  0  0  0
  1  4  1  0  0  0  0
  4  5  1  0  0  0  0
  4  6  1  0  0  0  0
  4  7  1  0  0  0  0
  7  8  1  0  0  0  0
  7  9  1  0  0  0  0
  7 10  1  0  0  0  0
 10 11  1  0  0  0  0
 10 12  1  0  0  0  0
 10 13  1  0  0  0  0
 13 14  1  0  0  0  0
 13 15  1  0  0  0  0
 15 16  1  0  0  0  0
 15 17  1  0  0  0  0
  1 18  1  0  0  0  0
 15 18  1  0  0  0  0
 18 19  1  0  0  0  0
 18 20  1  0  0  0  0
 13 21  1  0  0  0  0
 21 22  1  0  0  0  0
M  END
> <VConfSearch Rank>
479

> <Conf_Id>
99

> <Delta U+W>
-3.852

> <U+W>
2.572

> <U>
3.922

> <W>
-1.350

> <W(PB)>
-3.345

> <W(SA)>
1.995

> <Valence>
12.571

> <Coulomb>
-10.581

> <VdW>
1.932

> <VdW6>
-10.483

> <VdW12>
12.415

> <Bond>
0.268

> <Angle>
3.728

> <Pdih>
8.575

> <Idih>
0.000

> <Tether>
0.000

$$$$
VeraChem MOL file


 22 22  0  0  0  0  0  0  0  0999 V2000     
   19.0736   18.8611   23.7915 C   0  0  0  0  0  0  0  0  0  0  0  0
   18.4277   18.0341   24.1174 H   0  0  0  0  0  0  0  0  0  0  0  0
   19.0766   19.5665   24.6332 H   0  0  0  0  0  0  0  0  0  0  0  0
   18.4146   19.5180   22.5433 C   0  0  0  0  0  0  0  0  0  0  0  0
   17.4835   18.9755   22.3291 H   0  0  0  0  0  0  0  0  0  0  0  0
   18.0975   20.5429   22.7782 H   0  0  0  0  0  0  0  0  0  0  0  0
   19.2671   19.5224   21.2487 C   0  0  0  0  0  0  0  0  0  0  0  0
   18.6249   19.8296   20.4121 H   0  0  0  0  0  0  0  0  0  0  0  0
   19.5703   18.4975   21.0015 H   0  0  0  0  0  0  0  0  0  0  0  0
   20.5134   20.4506   21.2568 C   0  0  0  0  0  0  0  0  0  0  0  0
   21.2181   20.0852   20.4987 H   0  0  0  0  0  0  0  0  0  0  0  0
   20.2062   21.4467   20.9111 H   0  0  0  0  0  0  0  0  0  0  0  0
   21.2798   20.6354   22.5897 C   0  0  0  0  0  0  0  0  0  0  0  0
   22.2328   21.1260   22.3448 H   0  0  0  0  0  0  0  0  0  0  0  0
   21.6266   19.3410   23.3658 C   0  0  0  0  0  0  0  0  0  0  0  0
   22.4630   18.8446   22.8572 H   0  0  0  0  0  0  0  0  0  0  0  0
   22.0195   19.6389   24.3471 H   0  0  0  0  0  0  0  0  0  0  0  0
   20.5009   18.2926   23.5857 C   0  0  0  0  0  0  0  0  0  0  0  0
   20.4973   17.5737   22.7570 H   0  0  0  0  0  0  0  0  0  0  0  0
   20.7663   17.6948   24.4683 H   0  0  0  0  0  0  0  0  0  0  0  0
   20.5593   21.5186   23.4347 O   0  0  0  0  0  0  0  0  0  0  0  0
   19.7270   21.0400   23.6223 H   0  0  0  0  0  0  0  0  0  0  0  0
  1  2  1  0  0  0  0
  1  3  1  0  0  0  0
  1  4  1  0  0  0  0
  4  5  1  0  0  0  0
  4  6  1  0  0  0  0
  4  7  1  0  0  0  0
  7  8  1  0  0  0  0
  7  9  1  0  0  0  0
  7 10  1  0  0  0  0
 10 11  1  0  0  0  0
 10 12  1  0  0  0  0
 10 13  1  0  0  0  0
 13 14  1  0  0  0  0
 13 15  1  0  0  0  0
 15 16  1  0  0  0  0
 15 17  1  0  0  0  0
  1 18  1  0  0  0  0
 15 18  1  0  0  0  0
 18 19  1  0  0  0  0
 18 20  1  0  0  0  0
 13 21  1  0  0  0  0
 21 22  1  0  0  0  0
M  END
> <VConfSearch Rank>
480

> <Conf_Id>
98

> <Delta U+W>
0.930

> <U+W>
7.353

> <U>
8.455

> <W>
-1.102

> <W(PB)>
-3.101

> <W(SA)>
2.000

> <Valence>
15.601

> <Coulomb>
-10.573

> <VdW>
3.427

> <VdW6>
-11.360

> <VdW12>
14.787

> <Bond>
0.471

> <Angle>
5.445

> <Pdih>
9.685

> <Idih>
0.000

> <Tether>
0.000

$$$$
VeraChem MOL file


 22 22  0  0  0  0  0  0  0  0999 V2000     
   18.8051   18.3393   22.9030 C   0  0  0  0  0  0  0  0  0  0  0  0
   18.9754   18.4647   23.9801 H   0  0  0  0  0  0  0  0  0  0  0  0
   17.9830   17.6146   22.8269 H   0  0  0  0  0  0  0  0  0  0  0  0
   20.0655   17.7268   22.2411 C   0  0  0  0  0  0  0  0  0  0  0  0
   20.2572   16.7600   22.7265 H   0  0  0  0  0  0  0  0  0  0  0  0
   19.8521   17.4941   21.1890 H   0  0  0  0  0  0  0  0  0  0  0  0
   21.3650   18.5749   22.3231 C   0  0  0  0  0  0  0  0  0  0  0  0
   21.5602   19.0587   21.3572 H   0  0  0  0  0  0  0  0  0  0  0  0
   22.2114   17.8910   22.4729 H   0  0  0  0  0  0  0  0  0  0  0  0
   21.3830   19.6423   23.4492 C   0  0  0  0  0  0  0  0  0  0  0  0
   21.1246   19.1643   24.4023 H   0  0  0  0  0  0  0  0  0  0  0  0
   22.4171   19.9889   23.5792 H   0  0  0  0  0  0  0  0  0  0  0  0
   20.4612   20.8776   23.2302 C   0  0  0  0  0  0  0  0  0  0  0  0
   19.9171   21.0647   24.1673 H   0  0  0  0  0  0  0  0  0  0  0  0
   19.4240   20.7540   22.0859 C   0  0  0  0  0  0  0  0  0  0  0  0
   18.9246   21.7224   21.9527 H   0  0  0  0  0  0  0  0  0  0  0  0
   19.9416   20.5673   21.1373 H   0  0  0  0  0  0  0  0  0  0  0  0
   18.3279   19.6797   22.2962 C   0  0  0  0  0  0  0  0  0  0  0  0
   17.5470   20.0918   22.9498 H   0  0  0  0  0  0  0  0  0  0  0  0
   17.8412   19.4853   21.3308 H   0  0  0  0  0  0  0  0  0  0  0  0
   21.2799   22.0057   22.9435 O   0  0  0  0  0  0  0  0  0  0  0  0
   20.6810   22.7776   22.8675 H   0  0  0  0  0  0  0  0  0  0  0  0
  1  2  1  0  0  0  0
  1  3  1  0  0  0  0
  1  4  1  0  0  0  0
  4  5  1  0  0  0  0
  4  6  1  0  0  0  0
  4  7  1  0  0  0  0
  7  8  1  0  0  0  0
  7  9  1  0  0  0  0
  7 10  1  0  0  0  0
 10 11  1  0  0  0  0
 10 12  1  0  0  0  0
 10 13  1  0  0  0  0
 13 14  1  0  0  0  0
 13 15  1  0  0  0  0
 15 16  1  0  0  0  0
 15 17  1  0  0  0  0
  1 18  1  0  0  0  0
 15 18  1  0  0  0  0
 18 19  1  0  0  0  0
 18 20  1  0  0  0  0
 13 21  1  0  0  0  0
 21 22  1  0  0  0  0
M  END
> <VConfSearch Rank>
481

> <Conf_Id>
141

> <Delta U+W>
0.000

> <U+W>
6.423

> <U>
8.781

> <W>
-2.358

> <W(PB)>
-4.373

> <W(SA)>
2.015

> <Valence>
13.328

> <Coulomb>
-8.387

> <VdW>
3.840

> <VdW6>
-9.744

> <VdW12>
13.584

> <Bond>
0.436

> <Angle>
3.478

> <Pdih>
9.415

> <Idih>
0.000

> <Tether>
0.000

$$$$
VeraChem MOL file


 22 22  0  0  0  0  0  0  0  0999 V2000     
   19.6137   18.1939   23.6148 C   0  0  0  0  0  0  0  0  0  0  0  0
   20.1178   17.5792   22.8567 H   0  0  0  0  0  0  0  0  0  0  0  0
   19.3083   17.5026   24.4122 H   0  0  0  0  0  0  0  0  0  0  0  0
   18.3317   18.8422   23.0388 C   0  0  0  0  0  0  0  0  0  0  0  0
   17.5925   18.0510   22.8533 H   0  0  0  0  0  0  0  0  0  0  0  0
   17.8829   19.4980   23.7973 H   0  0  0  0  0  0  0  0  0  0  0  0
   18.5270   19.6368   21.7270 C   0  0  0  0  0  0  0  0  0  0  0  0
   17.5669   20.0996   21.4609 H   0  0  0  0  0  0  0  0  0  0  0  0
   18.7605   18.9405   20.9099 H   0  0  0  0  0  0  0  0  0  0  0  0
   19.6089   20.7427   21.7870 C   0  0  0  0  0  0  0  0  0  0  0  0
   19.4901   21.3721   20.8952 H   0  0  0  0  0  0  0  0  0  0  0  0
   19.4424   21.4009   22.6497 H   0  0  0  0  0  0  0  0  0  0  0  0
   21.0446   20.1720   21.8107 C   0  0  0  0  0  0  0  0  0  0  0  0
   21.0555   19.2432   21.2224 H   0  0  0  0  0  0  0  0  0  0  0  0
   21.5873   19.8576   23.2235 C   0  0  0  0  0  0  0  0  0  0  0  0
   22.4434   19.1807   23.1064 H   0  0  0  0  0  0  0  0  0  0  0  0
   21.9893   20.7764   23.6711 H   0  0  0  0  0  0  0  0  0  0  0  0
   20.5884   19.2275   24.2261 C   0  0  0  0  0  0  0  0  0  0  0  0
   21.1682   18.7430   25.0235 H   0  0  0  0  0  0  0  0  0  0  0  0
   20.0143   20.0223   24.7214 H   0  0  0  0  0  0  0  0  0  0  0  0
   21.9214   21.1114   21.2007 O   0  0  0  0  0  0  0  0  0  0  0  0
   21.6039   21.2389   20.2823 H   0  0  0  0  0  0  0  0  0  0  0  0
  1  2  1  0  0  0  0
  1  3  1  0  0  0  0
  1  4  1  0  0  0  0
  4  5  1  0  0  0  0
  4  6  1  0  0  0  0
  4  7  1  0  0  0  0
  7  8  1  0  0  0  0
  7  9  1  0  0  0  0
  7 10  1  0  0  0  0
 10 11  1  0  0  0  0
 10 12  1  0  0  0  0
 10 13  1  0  0  0  0
 13 14  1  0  0  0  0
 13 15  1  0  0  0  0
 15 16  1  0  0  0  0
 15 17  1  0  0  0  0
  1 18  1  0  0  0  0
 15 18  1  0  0  0  0
 18 19  1  0  0  0  0
 18 20  1  0  0  0  0
 13 21  1  0  0  0  0
 21 22  1  0  0  0  0
M  END
> <VConfSearch Rank>
482

> <Conf_Id>
144

> <Delta U+W>
-3.291

> <U+W>
3.132

> <U>
5.411

> <W>
-2.279

> <W(PB)>
-4.300

> <W(SA)>
2.021

> <Valence>
11.909

> <Coulomb>
-8.733

> <VdW>
2.236

> <VdW6>
-8.936

> <VdW12>
11.172

> <Bond>
0.223

> <Angle>
2.457

> <Pdih>
9.228

> <Idih>
0.000

> <Tether>
0.000

$$$$
VeraChem MOL file


 22 22  0  0  0  0  0  0  0  0999 V2000     
   18.8820   19.2749   23.9975 C   0  0  0  0  0  0  0  0  0  0  0  0
   18.0555   19.3139   24.7202 H   0  0  0  0  0  0  0  0  0  0  0  0
   19.5569   18.4831   24.3501 H   0  0  0  0  0  0  0  0  0  0  0  0
   19.5918   20.6490   24.0079 C   0  0  0  0  0  0  0  0  0  0  0  0
   19.0412   21.3498   23.3656 H   0  0  0  0  0  0  0  0  0  0  0  0
   19.5328   21.0718   25.0203 H   0  0  0  0  0  0  0  0  0  0  0  0
   21.0816   20.6215   23.5890 C   0  0  0  0  0  0  0  0  0  0  0  0
   21.6929   20.3496   24.4604 H   0  0  0  0  0  0  0  0  0  0  0  0
   21.3811   21.6443   23.3222 H   0  0  0  0  0  0  0  0  0  0  0  0
   21.4502   19.6686   22.4253 C   0  0  0  0  0  0  0  0  0  0  0  0
   22.4219   19.9878   22.0248 H   0  0  0  0  0  0  0  0  0  0  0  0
   21.6099   18.6582   22.8235 H   0  0  0  0  0  0  0  0  0  0  0  0
   20.4150   19.6085   21.2797 C   0  0  0  0  0  0  0  0  0  0  0  0
   19.9506   20.5965   21.1508 H   0  0  0  0  0  0  0  0  0  0  0  0
   19.3180   18.5482   21.5274 C   0  0  0  0  0  0  0  0  0  0  0  0
   18.7755   18.3773   20.5879 H   0  0  0  0  0  0  0  0  0  0  0  0
   19.7866   17.5897   21.7857 H   0  0  0  0  0  0  0  0  0  0  0  0
   18.2826   18.9164   22.6165 C   0  0  0  0  0  0  0  0  0  0  0  0
   17.6611   19.7496   22.2611 H   0  0  0  0  0  0  0  0  0  0  0  0
   17.5991   18.0655   22.7416 H   0  0  0  0  0  0  0  0  0  0  0  0
   21.0949   19.2609   20.0809 O   0  0  0  0  0  0  0  0  0  0  0  0
   21.4947   18.3803   20.2350 H   0  0  0  0  0  0  0  0  0  0  0  0
  1  2  1  0  0  0  0
  1  3  1  0  0  0  0
  1  4  1  0  0  0  0
  4  5  1  0  0  0  0
  4  6  1  0  0  0  0
  4  7  1  0  0  0  0
  7  8  1  0  0  0  0
  7  9  1  0  0  0  0
  7 10  1  0  0  0  0
 10 11  1  0  0  0  0
 10 12  1  0  0  0  0
 10 13  1  0  0  0  0
 13 14  1  0  0  0  0
 13 15  1  0  0  0  0
 15 16  1  0  0  0  0
 15 17  1  0  0  0  0
  1 18  1  0  0  0  0
 15 18  1  0  0  0  0
 18 19  1  0  0  0  0
 18 20  1  0  0  0  0
 13 21  1  0  0  0  0
 21 22  1  0  0  0  0
M  END
> <VConfSearch Rank>
483

> <Conf_Id>
76

> <Delta U+W>
-3.175

> <U+W>
3.248

> <U>
5.336

> <W>
-2.088

> <W(PB)>
-4.098

> <W(SA)>
2.010

> <Valence>
12.390

> <Coulomb>
-9.270

> <VdW>
2.216

> <VdW6>
-8.967

> <VdW12>
11.183

> <Bond>
0.218

> <Angle>
2.426

> <Pdih>
9.745

> <Idih>
0.000

> <Tether>
0.000

$$$$
VeraChem MOL file


 22 22  0  0  0  0  0  0  0  0999 V2000     
   19.8559   21.3303   23.2619 C   0  0  0  0  0  0  0  0  0  0  0  0
   18.9554   21.9533   23.1746 H   0  0  0  0  0  0  0  0  0  0  0  0
   20.5803   21.9311   23.8286 H   0  0  0  0  0  0  0  0  0  0  0  0
   20.4132   21.0832   21.8396 C   0  0  0  0  0  0  0  0  0  0  0  0
   19.5793   20.9719   21.1333 H   0  0  0  0  0  0  0  0  0  0  0  0
   20.9476   21.9890   21.5223 H   0  0  0  0  0  0  0  0  0  0  0  0
   21.3622   19.8690   21.7104 C   0  0  0  0  0  0  0  0  0  0  0  0
   21.9978   19.7698   22.6009 H   0  0  0  0  0  0  0  0  0  0  0  0
   22.0432   20.0563   20.8694 H   0  0  0  0  0  0  0  0  0  0  0  0
   20.6082   18.5461   21.4214 C   0  0  0  0  0  0  0  0  0  0  0  0
   19.9287   18.6962   20.5727 H   0  0  0  0  0  0  0  0  0  0  0  0
   21.3353   17.7943   21.0874 H   0  0  0  0  0  0  0  0  0  0  0  0
   19.8081   17.9446   22.5991 C   0  0  0  0  0  0  0  0  0  0  0  0
   19.1981   17.1291   22.1843 H   0  0  0  0  0  0  0  0  0  0  0  0
   18.8386   18.9246   23.3062 C   0  0  0  0  0  0  0  0  0  0  0  0
   18.1322   19.3407   22.5762 H   0  0  0  0  0  0  0  0  0  0  0  0
   18.2293   18.3396   24.0071 H   0  0  0  0  0  0  0  0  0  0  0  0
   19.5210   20.0712   24.0967 C   0  0  0  0  0  0  0  0  0  0  0  0
   18.8587   20.3776   24.9177 H   0  0  0  0  0  0  0  0  0  0  0  0
   20.4342   19.7027   24.5821 H   0  0  0  0  0  0  0  0  0  0  0  0
   20.7136   17.3842   23.5446 O   0  0  0  0  0  0  0  0  0  0  0  0
   20.1714   17.0631   24.2937 H   0  0  0  0  0  0  0  0  0  0  0  0
  1  2  1  0  0  0  0
  1  3  1  0  0  0  0
  1  4  1  0  0  0  0
  4  5  1  0  0  0  0
  4  6  1  0  0  0  0
  4  7  1  0  0  0  0
  7  8  1  0  0  0  0
  7  9  1  0  0  0  0
  7 10  1  0  0  0  0
 10 11  1  0  0  0  0
 10 12  1  0  0  0  0
 10 13  1  0  0  0  0
 13 14  1  0  0  0  0
 13 15  1  0  0  0  0
 15 16  1  0  0  0  0
 15 17  1  0  0  0  0
  1 18  1  0  0  0  0
 15 18  1  0  0  0  0
 18 19  1  0  0  0  0
 18 20  1  0  0  0  0
 13 21  1  0  0  0  0
 21 22  1  0  0  0  0
M  END
> <VConfSearch Rank>
484

> <Conf_Id>
95

> <Delta U+W>
-2.289

> <U+W>
4.134

> <U>
6.373

> <W>
-2.240

> <W(PB)>
-4.254

> <W(SA)>
2.015

> <Valence>
12.093

> <Coulomb>
-8.058

> <VdW>
2.339

> <VdW6>
-9.683

> <VdW12>
12.022

> <Bond>
0.268

> <Angle>
3.005

> <Pdih>
8.820

> <Idih>
0.000

> <Tether>
0.000

$$$$
VeraChem MOL file


 22 22  0  0  0  0  0  0  0  0999 V2000     
   18.2428   19.0512   22.9761 C   0  0  0  0  0  0  0  0  0  0  0  0
   17.7080   18.9274   23.9276 H   0  0  0  0  0  0  0  0  0  0  0  0
   17.5132   18.8110   22.1908 H   0  0  0  0  0  0  0  0  0  0  0  0
   19.3904   18.0144   22.9277 C   0  0  0  0  0  0  0  0  0  0  0  0
   19.8122   17.8881   23.9340 H   0  0  0  0  0  0  0  0  0  0  0  0
   18.9562   17.0395   22.6672 H   0  0  0  0  0  0  0  0  0  0  0  0
   20.5266   18.3405   21.9305 C   0  0  0  0  0  0  0  0  0  0  0  0
   20.1265   18.7931   21.0129 H   0  0  0  0  0  0  0  0  0  0  0  0
   20.9934   17.3942   21.6252 H   0  0  0  0  0  0  0  0  0  0  0  0
   21.6303   19.2323   22.5531 C   0  0  0  0  0  0  0  0  0  0  0  0
   21.9467   18.7967   23.5096 H   0  0  0  0  0  0  0  0  0  0  0  0
   22.5178   19.1939   21.9082 H   0  0  0  0  0  0  0  0  0  0  0  0
   21.2596   20.7153   22.7836 C   0  0  0  0  0  0  0  0  0  0  0  0
   22.0705   21.1563   23.3810 H   0  0  0  0  0  0  0  0  0  0  0  0
   19.9416   20.9503   23.5633 C   0  0  0  0  0  0  0  0  0  0  0  0
   19.9892   20.4498   24.5389 H   0  0  0  0  0  0  0  0  0  0  0  0
   19.8802   22.0245   23.7801 H   0  0  0  0  0  0  0  0  0  0  0  0
   18.6488   20.5355   22.8137 C   0  0  0  0  0  0  0  0  0  0  0  0
   17.8170   21.1543   23.1763 H   0  0  0  0  0  0  0  0  0  0  0  0
   18.7435   20.7743   21.7461 H   0  0  0  0  0  0  0  0  0  0  0  0
   21.2139   21.3909   21.5305 O   0  0  0  0  0  0  0  0  0  0  0  0
   22.0582   21.1963   21.0749 H   0  0  0  0  0  0  0  0  0  0  0  0
  1  2  1  0  0  0  0
  1  3  1  0  0  0  0
  1  4  1  0  0  0  0
  4  5  1  0  0  0  0
  4  6  1  0  0  0  0
  4  7  1  0  0  0  0
  7  8  1  0  0  0  0
  7  9  1  0  0  0  0
  7 10  1  0  0  0  0
 10 11  1  0  0  0  0
 10 12  1  0  0  0  0
 10 13  1  0  0  0  0
 13 14  1  0  0  0  0
 13 15  1  0  0  0  0
 15 16  1  0  0  0  0
 15 17  1  0  0  0  0
  1 18  1  0  0  0  0
 15 18  1  0  0  0  0
 18 19  1  0  0  0  0
 18 20  1  0  0  0  0
 13 21  1  0  0  0  0
 21 22  1  0  0  0  0
M  END
> <VConfSearch Rank>
485

> <Conf_Id>
41

> <Delta U+W>
-2.114

> <U+W>
4.310

> <U>
6.598

> <W>
-2.289

> <W(PB)>
-4.294

> <W(SA)>
2.005

> <Valence>
12.082

> <Coulomb>
-7.801

> <VdW>
2.317

> <VdW6>
-9.658

> <VdW12>
11.975

> <Bond>
0.267

> <Angle>
3.051

> <Pdih>
8.764

> <Idih>
0.000

> <Tether>
0.000

$$$$
VeraChem MOL file


 22 22  0  0  0  0  0  0  0  0999 V2000     
   20.2194   18.6337   21.3220 C   0  0  0  0  0  0  0  0  0  0  0  0
   20.0551   18.1002   20.3760 H   0  0  0  0  0  0  0  0  0  0  0  0
   21.3057   18.7705   21.4138 H   0  0  0  0  0  0  0  0  0  0  0  0
   19.6819   17.7455   22.4664 C   0  0  0  0  0  0  0  0  0  0  0  0
   18.5884   17.6724   22.3923 H   0  0  0  0  0  0  0  0  0  0  0  0
   20.0620   16.7245   22.3262 H   0  0  0  0  0  0  0  0  0  0  0  0
   20.0720   18.2161   23.8847 C   0  0  0  0  0  0  0  0  0  0  0  0
   21.1530   18.0869   24.0282 H   0  0  0  0  0  0  0  0  0  0  0  0
   19.5966   17.5403   24.6081 H   0  0  0  0  0  0  0  0  0  0  0  0
   19.6604   19.6722   24.2332 C   0  0  0  0  0  0  0  0  0  0  0  0
   18.5954   19.8248   24.0167 H   0  0  0  0  0  0  0  0  0  0  0  0
   19.7625   19.7953   25.3191 H   0  0  0  0  0  0  0  0  0  0  0  0
   20.4987   20.7929   23.5660 C   0  0  0  0  0  0  0  0  0  0  0  0
   20.3095   21.7121   24.1392 H   0  0  0  0  0  0  0  0  0  0  0  0
   20.1392   21.1216   22.0936 C   0  0  0  0  0  0  0  0  0  0  0  0
   19.4431   21.9704   22.0963 H   0  0  0  0  0  0  0  0  0  0  0  0
   21.0375   21.4875   21.5791 H   0  0  0  0  0  0  0  0  0  0  0  0
   19.5013   19.9987   21.2384 C   0  0  0  0  0  0  0  0  0  0  0  0
   18.4434   19.8795   21.5085 H   0  0  0  0  0  0  0  0  0  0  0  0
   19.5021   20.3324   20.1918 H   0  0  0  0  0  0  0  0  0  0  0  0
   21.8901   20.5013   23.6663 O   0  0  0  0  0  0  0  0  0  0  0  0
   22.3669   21.2570   23.2669 H   0  0  0  0  0  0  0  0  0  0  0  0
  1  2  1  0  0  0  0
  1  3  1  0  0  0  0
  1  4  1  0  0  0  0
  4  5  1  0  0  0  0
  4  6  1  0  0  0  0
  4  7  1  0  0  0  0
  7  8  1  0  0  0  0
  7  9  1  0  0  0  0
  7 10  1  0  0  0  0
 10 11  1  0  0  0  0
 10 12  1  0  0  0  0
 10 13  1  0  0  0  0
 13 14  1  0  0  0  0
 13 15  1  0  0  0  0
 15 16  1  0  0  0  0
 15 17  1  0  0  0  0
  1 18  1  0  0  0  0
 15 18  1  0  0  0  0
 18 19  1  0  0  0  0
 18 20  1  0  0  0  0
 13 21  1  0  0  0  0
 21 22  1  0  0  0  0
M  END
> <VConfSearch Rank>
486

> <Conf_Id>
104

> <Delta U+W>
-1.172

> <U+W>
5.252

> <U>
7.482

> <W>
-2.230

> <W(PB)>
-4.220

> <W(SA)>
1.990

> <Valence>
12.309

> <Coulomb>
-7.084

> <VdW>
2.258

> <VdW6>
-9.770

> <VdW12>
12.028

> <Bond>
0.284

> <Angle>
3.491

> <Pdih>
8.535

> <Idih>
0.000

> <Tether>
0.000

$$$$
VeraChem MOL file


 22 22  0  0  0  0  0  0  0  0999 V2000     
   21.2887   19.4768   21.5765 C   0  0  0  0  0  0  0  0  0  0  0  0
   20.6974   19.9342   20.7718 H   0  0  0  0  0  0  0  0  0  0  0  0
   22.2632   19.2308   21.1331 H   0  0  0  0  0  0  0  0  0  0  0  0
   20.6410   18.1577   22.0562 C   0  0  0  0  0  0  0  0  0  0  0  0
   20.8963   17.3623   21.3425 H   0  0  0  0  0  0  0  0  0  0  0  0
   21.1034   17.8488   23.0028 H   0  0  0  0  0  0  0  0  0  0  0  0
   19.0986   18.1818   22.2040 C   0  0  0  0  0  0  0  0  0  0  0  0
   18.8076   17.4188   22.9391 H   0  0  0  0  0  0  0  0  0  0  0  0
   18.6534   17.8555   21.2541 H   0  0  0  0  0  0  0  0  0  0  0  0
   18.4416   19.5355   22.5876 C   0  0  0  0  0  0  0  0  0  0  0  0
   18.3783   20.1697   21.6939 H   0  0  0  0  0  0  0  0  0  0  0  0
   17.4005   19.3376   22.8742 H   0  0  0  0  0  0  0  0  0  0  0  0
   19.1073   20.3445   23.7243 C   0  0  0  0  0  0  0  0  0  0  0  0
   18.3452   21.0246   24.1313 H   0  0  0  0  0  0  0  0  0  0  0  0
   20.2748   21.2273   23.2285 C   0  0  0  0  0  0  0  0  0  0  0  0
   19.9049   21.8836   22.4301 H   0  0  0  0  0  0  0  0  0  0  0  0
   20.5699   21.8961   24.0476 H   0  0  0  0  0  0  0  0  0  0  0  0
   21.5369   20.4850   22.7236 C   0  0  0  0  0  0  0  0  0  0  0  0
   22.2523   21.2401   22.3702 H   0  0  0  0  0  0  0  0  0  0  0  0
   22.0326   19.9794   23.5634 H   0  0  0  0  0  0  0  0  0  0  0  0
   19.5526   19.4793   24.7575 O   0  0  0  0  0  0  0  0  0  0  0  0
   20.1571   18.8583   24.3045 H   0  0  0  0  0  0  0  0  0  0  0  0
  1  2  1  0  0  0  0
  1  3  1  0  0  0  0
  1  4  1  0  0  0  0
  4  5  1  0  0  0  0
  4  6  1  0  0  0  0
  4  7  1  0  0  0  0
  7  8  1  0  0  0  0
  7  9  1  0  0  0  0
  7 10  1  0  0  0  0
 10 11  1  0  0  0  0
 10 12  1  0  0  0  0
 10 13  1  0  0  0  0
 13 14  1  0  0  0  0
 13 15  1  0  0  0  0
 15 16  1  0  0  0  0
 15 17  1  0  0  0  0
  1 18  1  0  0  0  0
 15 18  1  0  0  0  0
 18 19  1  0  0  0  0
 18 20  1  0  0  0  0
 13 21  1  0  0  0  0
 21 22  1  0  0  0  0
M  END
> <VConfSearch Rank>
487

> <Conf_Id>
99

> <Delta U+W>
-3.852

> <U+W>
2.572

> <U>
3.922

> <W>
-1.350

> <W(PB)>
-3.345

> <W(SA)>
1.995

> <Valence>
12.571

> <Coulomb>
-10.581

> <VdW>
1.932

> <VdW6>
-10.483

> <VdW12>
12.415

> <Bond>
0.268

> <Angle>
3.728

> <Pdih>
8.575

> <Idih>
0.000

> <Tether>
0.000

$$$$
VeraChem MOL file


 22 22  0  0  0  0  0  0  0  0999 V2000     
   21.4557   20.4880   22.4108 C   0  0  0  0  0  0  0  0  0  0  0  0
   22.3035   21.0898   22.7664 H   0  0  0  0  0  0  0  0  0  0  0  0
   21.5854   20.4322   21.3217 H   0  0  0  0  0  0  0  0  0  0  0  0
   20.1465   21.2563   22.7565 C   0  0  0  0  0  0  0  0  0  0  0  0
   20.4276   22.1907   23.2617 H   0  0  0  0  0  0  0  0  0  0  0  0
   19.6397   21.5739   21.8355 H   0  0  0  0  0  0  0  0  0  0  0  0
   19.1420   20.5092   23.6705 C   0  0  0  0  0  0  0  0  0  0  0  0
   18.3697   21.2214   23.9915 H   0  0  0  0  0  0  0  0  0  0  0  0
   19.6410   20.2065   24.5995 H   0  0  0  0  0  0  0  0  0  0  0  0
   18.4252   19.2845   23.0370 C   0  0  0  0  0  0  0  0  0  0  0  0
   18.0738   18.6350   23.8490 H   0  0  0  0  0  0  0  0  0  0  0  0
   17.5153   19.6375   22.5335 H   0  0  0  0  0  0  0  0  0  0  0  0
   19.2133   18.4189   22.0232 C   0  0  0  0  0  0  0  0  0  0  0  0
   18.6324   17.4980   21.8701 H   0  0  0  0  0  0  0  0  0  0  0  0
   20.6370   17.9865   22.4525 C   0  0  0  0  0  0  0  0  0  0  0  0
   20.5470   17.1834   23.1952 H   0  0  0  0  0  0  0  0  0  0  0  0
   21.1187   17.5231   21.5812 H   0  0  0  0  0  0  0  0  0  0  0  0
   21.5931   19.0706   23.0230 C   0  0  0  0  0  0  0  0  0  0  0  0
   21.4820   19.1257   24.1130 H   0  0  0  0  0  0  0  0  0  0  0  0
   22.6240   18.7246   22.8678 H   0  0  0  0  0  0  0  0  0  0  0  0
   19.2753   19.0874   20.7733 O   0  0  0  0  0  0  0  0  0  0  0  0
   19.7978   19.8927   20.9616 H   0  0  0  0  0  0  0  0  0  0  0  0
  1  2  1  0  0  0  0
  1  3  1  0  0  0  0
  1  4  1  0  0  0  0
  4  5  1  0  0  0  0
  4  6  1  0  0  0  0
  4  7  1  0  0  0  0
  7  8  1  0  0  0  0
  7  9  1  0  0  0  0
  7 10  1  0  0  0  0
 10 11  1  0  0  0  0
 10 12  1  0  0  0  0
 10 13  1  0  0  0  0
 13 14  1  0  0  0  0
 13 15  1  0  0  0  0
 15 16  1  0  0  0  0
 15 17  1  0  0  0  0
  1 18  1  0  0  0  0
 15 18  1  0  0  0  0
 18 19  1  0  0  0  0
 18 20  1  0  0  0  0
 13 21  1  0  0  0  0
 21 22  1  0  0  0  0
M  END
> <VConfSearch Rank>
488

> <Conf_Id>
98

> <Delta U+W>
0.930

> <U+W>
7.353

> <U>
8.455

> <W>
-1.102

> <W(PB)>
-3.101

> <W(SA)>
2.000

> <Valence>
15.601

> <Coulomb>
-10.573

> <VdW>
3.427

> <VdW6>
-11.360

> <VdW12>
14.787

> <Bond>
0.471

> <Angle>
5.445

> <Pdih>
9.685

> <Idih>
0.000

> <Tether>
0.000

$$$$
VeraChem MOL file


 22 22  0  0  0  0  0  0  0  0999 V2000     
   20.4339   21.1637   23.0061 C   0  0  0  0  0  0  0  0  0  0  0  0
   19.3805   21.4172   22.8304 H   0  0  0  0  0  0  0  0  0  0  0  0
   20.9066   22.1064   23.3137 H   0  0  0  0  0  0  0  0  0  0  0  0
   21.0875   20.6931   21.6819 C   0  0  0  0  0  0  0  0  0  0  0  0
   20.9937   21.5134   20.9572 H   0  0  0  0  0  0  0  0  0  0  0  0
   22.1663   20.5525   21.8340 H   0  0  0  0  0  0  0  0  0  0  0  0
   20.4909   19.4101   21.0397 C   0  0  0  0  0  0  0  0  0  0  0  0
   21.1522   18.5538   21.2255 H   0  0  0  0  0  0  0  0  0  0  0  0
   20.4954   19.5392   19.9489 H   0  0  0  0  0  0  0  0  0  0  0  0
   19.0492   19.0580   21.4926 C   0  0  0  0  0  0  0  0  0  0  0  0
   18.4066   19.9379   21.3641 H   0  0  0  0  0  0  0  0  0  0  0  0
   18.6431   18.3091   20.7993 H   0  0  0  0  0  0  0  0  0  0  0  0
   18.9043   18.5274   22.9491 C   0  0  0  0  0  0  0  0  0  0  0  0
   18.0599   19.0525   23.4185 H   0  0  0  0  0  0  0  0  0  0  0  0
   20.1463   18.6996   23.8590 C   0  0  0  0  0  0  0  0  0  0  0  0
   19.9647   18.1822   24.8101 H   0  0  0  0  0  0  0  0  0  0  0  0
   21.0050   18.1834   23.4131 H   0  0  0  0  0  0  0  0  0  0  0  0
   20.5350   20.1639   24.1821 C   0  0  0  0  0  0  0  0  0  0  0  0
   19.8960   20.5297   24.9974 H   0  0  0  0  0  0  0  0  0  0  0  0
   21.5605   20.1732   24.5758 H   0  0  0  0  0  0  0  0  0  0  0  0
   18.6052   17.1372   22.8946 O   0  0  0  0  0  0  0  0  0  0  0  0
   18.4627   16.8423   23.8181 H   0  0  0  0  0  0  0  0  0  0  0  0
  1  2  1  0  0  0  0
  1  3  1  0  0  0  0
  1  4  1  0  0  0  0
  4  5  1  0  0  0  0
  4  6  1  0  0  0  0
  4  7  1  0  0  0  0
  7  8  1  0  0  0  0
  7  9  1  0  0  0  0
  7 10  1  0  0  0  0
 10 11  1  0  0  0  0
 10 12  1  0  0  0  0
 10 13  1  0  0  0  0
 13 14  1  0  0  0  0
 13 15  1  0  0  0  0
 15 16  1  0  0  0  0
 15 17  1  0  0  0  0
  1 18  1  0  0  0  0
 15 18  1  0  0  0  0
 18 19  1  0  0  0  0
 18 20  1  0  0  0  0
 13 21  1  0  0  0  0
 21 22  1  0  0  0  0
M  END
> <VConfSearch Rank>
489

> <Conf_Id>
141

> <Delta U+W>
0.000

> <U+W>
6.423

> <U>
8.781

> <W>
-2.358

> <W(PB)>
-4.373

> <W(SA)>
2.015

> <Valence>
13.328

> <Coulomb>
-8.387

> <VdW>
3.840

> <VdW6>
-9.744

> <VdW12>
13.584

> <Bond>
0.436

> <Angle>
3.478

> <Pdih>
9.415

> <Idih>
0.000

> <Tether>
0.000

$$$$
VeraChem MOL file


 22 22  0  0  0  0  0  0  0  0999 V2000     
   18.9891   18.8198   23.8598 C   0  0  0  0  0  0  0  0  0  0  0  0
   19.4513   17.8636   23.5793 H   0  0  0  0  0  0  0  0  0  0  0  0
   18.3095   18.5956   24.6933 H   0  0  0  0  0  0  0  0  0  0  0  0
   18.1368   19.3847   22.6978 C   0  0  0  0  0  0  0  0  0  0  0  0
   17.2611   18.7361   22.5589 H   0  0  0  0  0  0  0  0  0  0  0  0
   17.7379   20.3676   22.9833 H   0  0  0  0  0  0  0  0  0  0  0  0
   18.8684   19.5042   21.3411 C   0  0  0  0  0  0  0  0  0  0  0  0
   18.1838   19.9765   20.6234 H   0  0  0  0  0  0  0  0  0  0  0  0
   19.0703   18.4993   20.9456 H   0  0  0  0  0  0  0  0  0  0  0  0
   20.1850   20.3182   21.3773 C   0  0  0  0  0  0  0  0  0  0  0  0
   20.4767   20.5240   20.3391 H   0  0  0  0  0  0  0  0  0  0  0  0
   20.0227   21.2962   21.8486 H   0  0  0  0  0  0  0  0  0  0  0  0
   21.3344   19.5623   22.0810 C   0  0  0  0  0  0  0  0  0  0  0  0
   21.2064   18.4870   21.8908 H   0  0  0  0  0  0  0  0  0  0  0  0
   21.4043   19.7795   23.6098 C   0  0  0  0  0  0  0  0  0  0  0  0
   22.0201   18.9743   24.0309 H   0  0  0  0  0  0  0  0  0  0  0  0
   21.9443   20.7124   23.8200 H   0  0  0  0  0  0  0  0  0  0  0  0
   20.0535   19.8206   24.3673 C   0  0  0  0  0  0  0  0  0  0  0  0
   20.2534   19.6210   25.4289 H   0  0  0  0  0  0  0  0  0  0  0  0
   19.6433   20.8391   24.3319 H   0  0  0  0  0  0  0  0  0  0  0  0
   22.5714   19.9832   21.5190 O   0  0  0  0  0  0  0  0  0  0  0  0
   22.5355   19.7673   20.5637 H   0  0  0  0  0  0  0  0  0  0  0  0
  1  2  1  0  0  0  0
  1  3  1  0  0  0  0
  1  4  1  0  0  0  0
  4  5  1  0  0  0  0
  4  6  1  0  0  0  0
  4  7  1  0  0  0  0
  7  8  1  0  0  0  0
  7  9  1  0  0  0  0
  7 10  1  0  0  0  0
 10 11  1  0  0  0  0
 10 12  1  0  0  0  0
 10 13  1  0  0  0  0
 13 14  1  0  0  0  0
 13 15  1  0  0  0  0
 15 16  1  0  0  0  0
 15 17  1  0  0  0  0
  1 18  1  0  0  0  0
 15 18  1  0  0  0  0
 18 19  1  0  0  0  0
 18 20  1  0  0  0  0
 13 21  1  0  0  0  0
 21 22  1  0  0  0  0
M  END
> <VConfSearch Rank>
490

> <Conf_Id>
144

> <Delta U+W>
-3.291

> <U+W>
3.132

> <U>
5.411

> <W>
-2.279

> <W(PB)>
-4.300

> <W(SA)>
2.021

> <Valence>
11.909

> <Coulomb>
-8.733

> <VdW>
2.236

> <VdW6>
-8.936

> <VdW12>
11.172

> <Bond>
0.223

> <Angle>
2.457

> <Pdih>
9.228

> <Idih>
0.000

> <Tether>
0.000

$$$$
VeraChem MOL file


 22 22  0  0  0  0  0  0  0  0999 V2000     
   18.8217   19.6297   23.9751 C   0  0  0  0  0  0  0  0  0  0  0  0
   17.9460   19.5182   24.6290 H   0  0  0  0  0  0  0  0  0  0  0  0
   19.5572   20.2102   24.5486 H   0  0  0  0  0  0  0  0  0  0  0  0
   18.3784   20.3994   22.7090 C   0  0  0  0  0  0  0  0  0  0  0  0
   17.9166   19.6999   21.9989 H   0  0  0  0  0  0  0  0  0  0  0  0
   17.5832   21.1061   22.9829 H   0  0  0  0  0  0  0  0  0  0  0  0
   19.4997   21.1957   21.9987 C   0  0  0  0  0  0  0  0  0  0  0  0
   19.6162   22.1690   22.4948 H   0  0  0  0  0  0  0  0  0  0  0  0
   19.1653   21.4203   20.9765 H   0  0  0  0  0  0  0  0  0  0  0  0
   20.8902   20.5170   21.9363 C   0  0  0  0  0  0  0  0  0  0  0  0
   21.4708   21.0127   21.1466 H   0  0  0  0  0  0  0  0  0  0  0  0
   21.4302   20.7148   22.8713 H   0  0  0  0  0  0  0  0  0  0  0  0
   20.8607   18.9942   21.6759 C   0  0  0  0  0  0  0  0  0  0  0  0
   20.0197   18.7505   21.0113 H   0  0  0  0  0  0  0  0  0  0  0  0
   20.7464   18.1721   22.9798 C   0  0  0  0  0  0  0  0  0  0  0  0
   20.9841   17.1235   22.7564 H   0  0  0  0  0  0  0  0  0  0  0  0
   21.5084   18.5103   23.6940 H   0  0  0  0  0  0  0  0  0  0  0  0
   19.3584   18.2123   23.6621 C   0  0  0  0  0  0  0  0  0  0  0  0
   18.6304   17.6762   23.0381 H   0  0  0  0  0  0  0  0  0  0  0  0
   19.4214   17.6463   24.6015 H   0  0  0  0  0  0  0  0  0  0  0  0
   22.0745   18.6271   21.0338 O   0  0  0  0  0  0  0  0  0  0  0  0
   22.7965   18.8602   21.6530 H   0  0  0  0  0  0  0  0  0  0  0  0
  1  2  1  0  0  0  0
  1  3  1  0  0  0  0
  1  4  1  0  0  0  0
  4  5  1  0  0  0  0
  4  6  1  0  0  0  0
  4  7  1  0  0  0  0
  7  8  1  0  0  0  0
  7  9  1  0  0  0  0
  7 10  1  0  0  0  0
 10 11  1  0  0  0  0
 10 12  1  0  0  0  0
 10 13  1  0  0  0  0
 13 14  1  0  0  0  0
 13 15  1  0  0  0  0
 15 16  1  0  0  0  0
 15 17  1  0  0  0  0
  1 18  1  0  0  0  0
 15 18  1  0  0  0  0
 18 19  1  0  0  0  0
 18 20  1  0  0  0  0
 13 21  1  0  0  0  0
 21 22  1  0  0  0  0
M  END
> <VConfSearch Rank>
491

> <Conf_Id>
76

> <Delta U+W>
-3.175

> <U+W>
3.248

> <U>
5.336

> <W>
-2.088

> <W(PB)>
-4.098

> <W(SA)>
2.010

> <Valence>
12.390

> <Coulomb>
-9.270

> <VdW>
2.216

> <VdW6>
-8.967

> <VdW12>
11.183

> <Bond>
0.218

> <Angle>
2.426

> <Pdih>
9.745

> <Idih>
0.000

> <Tether>
0.000

$$$$
VeraChem MOL file


 22 22  0  0  0  0  0  0  0  0999 V2000     
   19.0674   19.3407   21.1169 C   0  0  0  0  0  0  0  0  0  0  0  0
   18.5090   18.4483   20.8030 H   0  0  0  0  0  0  0  0  0  0  0  0
   18.8516   20.1084   20.3614 H   0  0  0  0  0  0  0  0  0  0  0  0
   20.5777   19.0062   21.0746 C   0  0  0  0  0  0  0  0  0  0  0  0
   20.7317   17.9656   21.3909 H   0  0  0  0  0  0  0  0  0  0  0  0
   20.9049   19.0459   20.0267 H   0  0  0  0  0  0  0  0  0  0  0  0
   21.4783   19.9388   21.9177 C   0  0  0  0  0  0  0  0  0  0  0  0
   21.1190   20.9761   21.8760 H   0  0  0  0  0  0  0  0  0  0  0  0
   22.4797   19.9449   21.4667 H   0  0  0  0  0  0  0  0  0  0  0  0
   21.6249   19.4649   23.3860 C   0  0  0  0  0  0  0  0  0  0  0  0
   21.9147   18.4064   23.3962 H   0  0  0  0  0  0  0  0  0  0  0  0
   22.4631   20.0044   23.8462 H   0  0  0  0  0  0  0  0  0  0  0  0
   20.3853   19.6502   24.2906 C   0  0  0  0  0  0  0  0  0  0  0  0
   20.5901   19.1067   25.2243 H   0  0  0  0  0  0  0  0  0  0  0  0
   19.0606   19.0874   23.7169 C   0  0  0  0  0  0  0  0  0  0  0  0
   19.1766   18.0193   23.4922 H   0  0  0  0  0  0  0  0  0  0  0  0
   18.3059   19.1422   24.5119 H   0  0  0  0  0  0  0  0  0  0  0  0
   18.5110   19.8342   22.4737 C   0  0  0  0  0  0  0  0  0  0  0  0
   17.4184   19.7245   22.4499 H   0  0  0  0  0  0  0  0  0  0  0  0
   18.6926   20.9126   22.5712 H   0  0  0  0  0  0  0  0  0  0  0  0
   20.2353   21.0310   24.6049 O   0  0  0  0  0  0  0  0  0  0  0  0
   19.4144   21.1093   25.1324 H   0  0  0  0  0  0  0  0  0  0  0  0
  1  2  1  0  0  0  0
  1  3  1  0  0  0  0
  1  4  1  0  0  0  0
  4  5  1  0  0  0  0
  4  6  1  0  0  0  0
  4  7  1  0  0  0  0
  7  8  1  0  0  0  0
  7  9  1  0  0  0  0
  7 10  1  0  0  0  0
 10 11  1  0  0  0  0
 10 12  1  0  0  0  0
 10 13  1  0  0  0  0
 13 14  1  0  0  0  0
 13 15  1  0  0  0  0
 15 16  1  0  0  0  0
 15 17  1  0  0  0  0
  1 18  1  0  0  0  0
 15 18  1  0  0  0  0
 18 19  1  0  0  0  0
 18 20  1  0  0  0  0
 13 21  1  0  0  0  0
 21 22  1  0  0  0  0
M  END
> <VConfSearch Rank>
492

> <Conf_Id>
95

> <Delta U+W>
-2.289

> <U+W>
4.134

> <U>
6.373

> <W>
-2.240

> <W(PB)>
-4.254

> <W(SA)>
2.015

> <Valence>
12.093

> <Coulomb>
-8.058

> <VdW>
2.339

> <VdW6>
-9.683

> <VdW12>
12.022

> <Bond>
0.268

> <Angle>
3.005

> <Pdih>
8.820

> <Idih>
0.000

> <Tether>
0.000

$$$$
VeraChem MOL file


 22 22  0  0  0  0  0  0  0  0999 V2000     
   21.3363   19.4116   24.0991 C   0  0  0  0  0  0  0  0  0  0  0  0
   22.2278   18.7697   24.0997 H   0  0  0  0  0  0  0  0  0  0  0  0
   21.3529   19.9454   25.0591 H   0  0  0  0  0  0  0  0  0  0  0  0
   20.0852   18.5022   24.0531 C   0  0  0  0  0  0  0  0  0  0  0  0
   20.2930   17.6255   23.4248 H   0  0  0  0  0  0  0  0  0  0  0  0
   19.9168   18.1055   25.0636 H   0  0  0  0  0  0  0  0  0  0  0  0
   18.7911   19.1922   23.5625 C   0  0  0  0  0  0  0  0  0  0  0  0
   18.7329   20.2258   23.9302 H   0  0  0  0  0  0  0  0  0  0  0  0
   17.9354   18.6631   24.0031 H   0  0  0  0  0  0  0  0  0  0  0  0
   18.6348   19.1423   22.0216 C   0  0  0  0  0  0  0  0  0  0  0  0
   18.7834   18.1102   21.6789 H   0  0  0  0  0  0  0  0  0  0  0  0
   17.5955   19.3868   21.7662 H   0  0  0  0  0  0  0  0  0  0  0  0
   19.5670   20.0716   21.2110 C   0  0  0  0  0  0  0  0  0  0  0  0
   19.4551   19.7902   20.1539 H   0  0  0  0  0  0  0  0  0  0  0  0
   21.0732   19.9549   21.5549 C   0  0  0  0  0  0  0  0  0  0  0  0
   21.4101   18.9197   21.4156 H   0  0  0  0  0  0  0  0  0  0  0  0
   21.6220   20.5510   20.8145 H   0  0  0  0  0  0  0  0  0  0  0  0
   21.4681   20.4588   22.9676 C   0  0  0  0  0  0  0  0  0  0  0  0
   22.5124   20.7978   22.9417 H   0  0  0  0  0  0  0  0  0  0  0  0
   20.8804   21.3502   23.2236 H   0  0  0  0  0  0  0  0  0  0  0  0
   19.1343   21.4206   21.3592 O   0  0  0  0  0  0  0  0  0  0  0  0
   18.1787   21.4344   21.1477 H   0  0  0  0  0  0  0  0  0  0  0  0
  1  2  1  0  0  0  0
  1  3  1  0  0  0  0
  1  4  1  0  0  0  0
  4  5  1  0  0  0  0
  4  6  1  0  0  0  0
  4  7  1  0  0  0  0
  7  8  1  0  0  0  0
  7  9  1  0  0  0  0
  7 10  1  0  0  0  0
 10 11  1  0  0  0  0
 10 12  1  0  0  0  0
 10 13  1  0  0  0  0
 13 14  1  0  0  0  0
 13 15  1  0  0  0  0
 15 16  1  0  0  0  0
 15 17  1  0  0  0  0
  1 18  1  0  0  0  0
 15 18  1  0  0  0  0
 18 19  1  0  0  0  0
 18 20  1  0  0  0  0
 13 21  1  0  0  0  0
 21 22  1  0  0  0  0
M  END
> <VConfSearch Rank>
493

> <Conf_Id>
41

> <Delta U+W>
-2.114

> <U+W>
4.310

> <U>
6.598

> <W>
-2.289

> <W(PB)>
-4.294

> <W(SA)>
2.005

> <Valence>
12.082

> <Coulomb>
-7.801

> <VdW>
2.317

> <VdW6>
-9.658

> <VdW12>
11.975

> <Bond>
0.267

> <Angle>
3.051

> <Pdih>
8.764

> <Idih>
0.000

> <Tether>
0.000

$$$$
VeraChem MOL file


 22 22  0  0  0  0  0  0  0  0999 V2000     
   19.6734   19.9862   21.1641 C   0  0  0  0  0  0  0  0  0  0  0  0
   19.1961   20.1255   20.1846 H   0  0  0  0  0  0  0  0  0  0  0  0
   20.3637   20.8311   21.2933 H   0  0  0  0  0  0  0  0  0  0  0  0
   20.4467   18.6490   21.1285 C   0  0  0  0  0  0  0  0  0  0  0  0
   19.7354   17.8147   21.0617 H   0  0  0  0  0  0  0  0  0  0  0  0
   21.0415   18.6122   20.2058 H   0  0  0  0  0  0  0  0  0  0  0  0
   21.3963   18.4220   22.3252 C   0  0  0  0  0  0  0  0  0  0  0  0
   22.2317   19.1325   22.2688 H   0  0  0  0  0  0  0  0  0  0  0  0
   21.8485   17.4273   22.2143 H   0  0  0  0  0  0  0  0  0  0  0  0
   20.7259   18.5005   23.7236 C   0  0  0  0  0  0  0  0  0  0  0  0
   19.8441   17.8481   23.7558 H   0  0  0  0  0  0  0  0  0  0  0  0
   21.4307   18.0821   24.4537 H   0  0  0  0  0  0  0  0  0  0  0  0
   20.3477   19.9211   24.2165 C   0  0  0  0  0  0  0  0  0  0  0  0
   20.1950   19.8476   25.3030 H   0  0  0  0  0  0  0  0  0  0  0  0
   19.0367   20.5121   23.6359 C   0  0  0  0  0  0  0  0  0  0  0  0
   18.2278   20.3069   24.3490 H   0  0  0  0  0  0  0  0  0  0  0  0
   19.1213   21.6063   23.6033 H   0  0  0  0  0  0  0  0  0  0  0  0
   18.5716   20.0098   22.2466 C   0  0  0  0  0  0  0  0  0  0  0  0
   18.1226   19.0119   22.3418 H   0  0  0  0  0  0  0  0  0  0  0  0
   17.7595   20.6667   21.9067 H   0  0  0  0  0  0  0  0  0  0  0  0
   21.4233   20.8288   23.9930 O   0  0  0  0  0  0  0  0  0  0  0  0
   21.1443   21.6932   24.3577 H   0  0  0  0  0  0  0  0  0  0  0  0
  1  2  1  0  0  0  0
  1  3  1  0  0  0  0
  1  4  1  0  0  0  0
  4  5  1  0  0  0  0
  4  6  1  0  0  0  0
  4  7  1  0  0  0  0
  7  8  1  0  0  0  0
  7  9  1  0  0  0  0
  7 10  1  0  0  0  0
 10 11  1  0  0  0  0
 10 12  1  0  0  0  0
 10 13  1  0  0  0  0
 13 14  1  0  0  0  0
 13 15  1  0  0  0  0
 15 16  1  0  0  0  0
 15 17  1  0  0  0  0
  1 18  1  0  0  0  0
 15 18  1  0  0  0  0
 18 19  1  0  0  0  0
 18 20  1  0  0  0  0
 13 21  1  0  0  0  0
 21 22  1  0  0  0  0
M  END
> <VConfSearch Rank>
494

> <Conf_Id>
104

> <Delta U+W>
-1.172

> <U+W>
5.252

> <U>
7.482

> <W>
-2.230

> <W(PB)>
-4.220

> <W(SA)>
1.990

> <Valence>
12.309

> <Coulomb>
-7.084

> <VdW>
2.258

> <VdW6>
-9.770

> <VdW12>
12.028

> <Bond>
0.284

> <Angle>
3.491

> <Pdih>
8.535

> <Idih>
0.000

> <Tether>
0.000

$$$$
VeraChem MOL file


 22 22  0  0  0  0  0  0  0  0999 V2000     
   21.0684   20.8728   22.8811 C   0  0  0  0  0  0  0  0  0  0  0  0
   20.8879   20.9163   23.9637 H   0  0  0  0  0  0  0  0  0  0  0  0
   21.7541   21.7009   22.6557 H   0  0  0  0  0  0  0  0  0  0  0  0
   19.7606   21.1140   22.0931 C   0  0  0  0  0  0  0  0  0  0  0  0
   19.5589   22.1938   22.0711 H   0  0  0  0  0  0  0  0  0  0  0  0
   19.9116   20.8320   21.0429 H   0  0  0  0  0  0  0  0  0  0  0  0
   18.4992   20.4097   22.6538 C   0  0  0  0  0  0  0  0  0  0  0  0
   17.7856   20.2671   21.8305 H   0  0  0  0  0  0  0  0  0  0  0  0
   18.0018   21.0941   23.3547 H   0  0  0  0  0  0  0  0  0  0  0  0
   18.7065   19.0574   23.3883 C   0  0  0  0  0  0  0  0  0  0  0  0
   19.0649   19.2537   24.4071 H   0  0  0  0  0  0  0  0  0  0  0  0
   17.7230   18.5865   23.5152 H   0  0  0  0  0  0  0  0  0  0  0  0
   19.6485   18.0299   22.7199 C   0  0  0  0  0  0  0  0  0  0  0  0
   19.3858   17.0388   23.1170 H   0  0  0  0  0  0  0  0  0  0  0  0
   21.1365   18.2682   23.0625 C   0  0  0  0  0  0  0  0  0  0  0  0
   21.2502   18.2686   24.1543 H   0  0  0  0  0  0  0  0  0  0  0  0
   21.7123   17.4043   22.7057 H   0  0  0  0  0  0  0  0  0  0  0  0
   21.7801   19.5556   22.4904 C   0  0  0  0  0  0  0  0  0  0  0  0
   22.8162   19.6030   22.8524 H   0  0  0  0  0  0  0  0  0  0  0  0
   21.8528   19.4815   21.3970 H   0  0  0  0  0  0  0  0  0  0  0  0
   19.4648   18.0266   21.3127 O   0  0  0  0  0  0  0  0  0  0  0  0
   19.6342   18.9526   21.0479 H   0  0  0  0  0  0  0  0  0  0  0  0
  1  2  1  0  0  0  0
  1  3  1  0  0  0  0
  1  4  1  0  0  0  0
  4  5  1  0  0  0  0
  4  6  1  0  0  0  0
  4  7  1  0  0  0  0
  7  8  1  0  0  0  0
  7  9  1  0  0  0  0
  7 10  1  0  0  0  0
 10 11  1  0  0  0  0
 10 12  1  0  0  0  0
 10 13  1  0  0  0  0
 13 14  1  0  0  0  0
 13 15  1  0  0  0  0
 15 16  1  0  0  0  0
 15 17  1  0  0  0  0
  1 18  1  0  0  0  0
 15 18  1  0  0  0  0
 18 19  1  0  0  0  0
 18 20  1  0  0  0  0
 13 21  1  0  0  0  0
 21 22  1  0  0  0  0
M  END
> <VConfSearch Rank>
495

> <Conf_Id>
99

> <Delta U+W>
-3.852

> <U+W>
2.572

> <U>
3.922

> <W>
-1.350

> <W(PB)>
-3.345

> <W(SA)>
1.995

> <Valence>
12.571

> <Coulomb>
-10.581

> <VdW>
1.932

> <VdW6>
-10.483

> <VdW12>
12.415

> <Bond>
0.268

> <Angle>
3.728

> <Pdih>
8.575

> <Idih>
0.000

> <Tether>
0.000

$$$$
VeraChem MOL file


 22 22  0  0  0  0  0  0  0  0999 V2000     
   20.7171   21.0956   22.3485 C   0  0  0  0  0  0  0  0  0  0  0  0
   20.8065   21.9953   21.7241 H   0  0  0  0  0  0  0  0  0  0  0  0
   21.3780   21.2794   23.2060 H   0  0  0  0  0  0  0  0  0  0  0  0
   21.2382   19.8853   21.5193 C   0  0  0  0  0  0  0  0  0  0  0  0
   21.5534   20.2612   20.5361 H   0  0  0  0  0  0  0  0  0  0  0  0
   22.1524   19.4808   21.9739 H   0  0  0  0  0  0  0  0  0  0  0  0
   20.2241   18.7371   21.2830 C   0  0  0  0  0  0  0  0  0  0  0  0
   20.6451   18.0517   20.5348 H   0  0  0  0  0  0  0  0  0  0  0  0
   19.3168   19.1354   20.8122 H   0  0  0  0  0  0  0  0  0  0  0  0
   19.8411   17.8983   22.5338 C   0  0  0  0  0  0  0  0  0  0  0  0
   18.8748   17.4151   22.3400 H   0  0  0  0  0  0  0  0  0  0  0  0
   20.5618   17.0757   22.6337 H   0  0  0  0  0  0  0  0  0  0  0  0
   19.7631   18.6187   23.9024 C   0  0  0  0  0  0  0  0  0  0  0  0
   19.2672   17.9277   24.5992 H   0  0  0  0  0  0  0  0  0  0  0  0
   18.9610   19.9429   23.9349 C   0  0  0  0  0  0  0  0  0  0  0  0
   17.8906   19.7015   23.9069 H   0  0  0  0  0  0  0  0  0  0  0  0
   19.1281   20.4069   24.9161 H   0  0  0  0  0  0  0  0  0  0  0  0
   19.2485   21.0029   22.8356 C   0  0  0  0  0  0  0  0  0  0  0  0
   18.5838   20.8373   21.9786 H   0  0  0  0  0  0  0  0  0  0  0  0
   18.9515   21.9845   23.2295 H   0  0  0  0  0  0  0  0  0  0  0  0
   21.0736   18.8436   24.3975 O   0  0  0  0  0  0  0  0  0  0  0  0
   21.4692   19.4590   23.7481 H   0  0  0  0  0  0  0  0  0  0  0  0
  1  2  1  0  0  0  0
  1  3  1  0  0  0  0
  1  4  1  0  0  0  0
  4  5  1  0  0  0  0
  4  6  1  0  0  0  0
  4  7  1  0  0  0  0
  7  8  1  0  0  0  0
  7  9  1  0  0  0  0
  7 10  1  0  0  0  0
 10 11  1  0  0  0  0
 10 12  1  0  0  0  0
 10 13  1  0  0  0  0
 13 14  1  0  0  0  0
 13 15  1  0  0  0  0
 15 16  1  0  0  0  0
 15 17  1  0  0  0  0
  1 18  1  0  0  0  0
 15 18  1  0  0  0  0
 18 19  1  0  0  0  0
 18 20  1  0  0  0  0
 13 21  1  0  0  0  0
 21 22  1  0  0  0  0
M  END
> <VConfSearch Rank>
496

> <Conf_Id>
98

> <Delta U+W>
0.930

> <U+W>
7.353

> <U>
8.455

> <W>
-1.102

> <W(PB)>
-3.101

> <W(SA)>
2.000

> <Valence>
15.601

> <Coulomb>
-10.573

> <VdW>
3.427

> <VdW6>
-11.360

> <VdW12>
14.787

> <Bond>
0.471

> <Angle>
5.445

> <Pdih>
9.685

> <Idih>
0.000

> <Tether>
0.000

$$$$
VeraChem MOL file


 22 22  0  0  0  0  0  0  0  0999 V2000     
   20.5411   18.8115   24.1235 C   0  0  0  0  0  0  0  0  0  0  0  0
   20.6605   19.8279   24.5202 H   0  0  0  0  0  0  0  0  0  0  0  0
   20.7878   18.1471   24.9628 H   0  0  0  0  0  0  0  0  0  0  0  0
   21.5651   18.5697   22.9855 C   0  0  0  0  0  0  0  0  0  0  0  0
   22.5690   18.7141   23.4078 H   0  0  0  0  0  0  0  0  0  0  0  0
   21.5234   17.5181   22.6706 H   0  0  0  0  0  0  0  0  0  0  0  0
   21.4306   19.4827   21.7353 C   0  0  0  0  0  0  0  0  0  0  0  0
   20.9608   18.9278   20.9128 H   0  0  0  0  0  0  0  0  0  0  0  0
   22.4405   19.7209   21.3749 H   0  0  0  0  0  0  0  0  0  0  0  0
   20.6609   20.8094   21.9703 C   0  0  0  0  0  0  0  0  0  0  0  0
   21.0948   21.3291   22.8336 H   0  0  0  0  0  0  0  0  0  0  0  0
   20.8508   21.4741   21.1168 H   0  0  0  0  0  0  0  0  0  0  0  0
   19.1230   20.6766   22.1734 C   0  0  0  0  0  0  0  0  0  0  0  0
   18.8401   21.2984   23.0350 H   0  0  0  0  0  0  0  0  0  0  0  0
   18.5939   19.2414   22.4189 C   0  0  0  0  0  0  0  0  0  0  0  0
   17.4964   19.2631   22.4238 H   0  0  0  0  0  0  0  0  0  0  0  0
   18.8627   18.5989   21.5718 H   0  0  0  0  0  0  0  0  0  0  0  0
   19.0613   18.5780   23.7385 C   0  0  0  0  0  0  0  0  0  0  0  0
   18.4324   18.9430   24.5620 H   0  0  0  0  0  0  0  0  0  0  0  0
   18.8726   17.4979   23.6712 H   0  0  0  0  0  0  0  0  0  0  0  0
   18.4703   21.1789   21.0128 O   0  0  0  0  0  0  0  0  0  0  0  0
   17.5074   21.1372   21.1898 H   0  0  0  0  0  0  0  0  0  0  0  0
  1  2  1  0  0  0  0
  1  3  1  0  0  0  0
  1  4  1  0  0  0  0
  4  5  1  0  0  0  0
  4  6  1  0  0  0  0
  4  7  1  0  0  0  0
  7  8  1  0  0  0  0
  7  9  1  0  0  0  0
  7 10  1  0  0  0  0
 10 11  1  0  0  0  0
 10 12  1  0  0  0  0
 10 13  1  0  0  0  0
 13 14  1  0  0  0  0
 13 15  1  0  0  0  0
 15 16  1  0  0  0  0
 15 17  1  0  0  0  0
  1 18  1  0  0  0  0
 15 18  1  0  0  0  0
 18 19  1  0  0  0  0
 18 20  1  0  0  0  0
 13 21  1  0  0  0  0
 21 22  1  0  0  0  0
M  END
> <VConfSearch Rank>
497

> <Conf_Id>
141

> <Delta U+W>
0.000

> <U+W>
6.423

> <U>
8.781

> <W>
-2.358

> <W(PB)>
-4.373

> <W(SA)>
2.015

> <Valence>
13.328

> <Coulomb>
-8.387

> <VdW>
3.840

> <VdW6>
-9.744

> <VdW12>
13.584

> <Bond>
0.436

> <Angle>
3.478

> <Pdih>
9.415

> <Idih>
0.000

> <Tether>
0.000

$$$$
VeraChem MOL file


 22 22  0  0  0  0  0  0  0  0999 V2000     
   18.5962   18.8418   23.3937 C   0  0  0  0  0  0  0  0  0  0  0  0
   18.5199   18.1903   22.5125 H   0  0  0  0  0  0  0  0  0  0  0  0
   17.8114   18.5086   24.0865 H   0  0  0  0  0  0  0  0  0  0  0  0
   18.2992   20.3143   23.0208 C   0  0  0  0  0  0  0  0  0  0  0  0
   17.2357   20.4015   22.7597 H   0  0  0  0  0  0  0  0  0  0  0  0
   18.4425   20.9499   23.9053 H   0  0  0  0  0  0  0  0  0  0  0  0
   19.1318   20.8778   21.8462 C   0  0  0  0  0  0  0  0  0  0  0  0
   18.8790   21.9400   21.7258 H   0  0  0  0  0  0  0  0  0  0  0  0
   18.8227   20.3886   20.9122 H   0  0  0  0  0  0  0  0  0  0  0  0
   20.6659   20.7506   22.0116 C   0  0  0  0  0  0  0  0  0  0  0  0
   21.1358   21.3806   21.2449 H   0  0  0  0  0  0  0  0  0  0  0  0
   20.9861   21.1575   22.9796 H   0  0  0  0  0  0  0  0  0  0  0  0
   21.1657   19.2982   21.8430 C   0  0  0  0  0  0  0  0  0  0  0  0
   20.5179   18.7940   21.1115 H   0  0  0  0  0  0  0  0  0  0  0  0
   21.1676   18.4647   23.1448 C   0  0  0  0  0  0  0  0  0  0  0  0
   21.2217   17.4060   22.8601 H   0  0  0  0  0  0  0  0  0  0  0  0
   22.0874   18.6722   23.7077 H   0  0  0  0  0  0  0  0  0  0  0  0
   19.9619   18.6627   24.0972 C   0  0  0  0  0  0  0  0  0  0  0  0
   19.9085   17.7906   24.7630 H   0  0  0  0  0  0  0  0  0  0  0  0
   20.1498   19.5229   24.7540 H   0  0  0  0  0  0  0  0  0  0  0  0
   22.4944   19.3266   21.3359 O   0  0  0  0  0  0  0  0  0  0  0  0
   22.4579   19.7930   20.4747 H   0  0  0  0  0  0  0  0  0  0  0  0
  1  2  1  0  0  0  0
  1  3  1  0  0  0  0
  1  4  1  0  0  0  0
  4  5  1  0  0  0  0
  4  6  1  0  0  0  0
  4  7  1  0  0  0  0
  7  8  1  0  0  0  0
  7  9  1  0  0  0  0
  7 10  1  0  0  0  0
 10 11  1  0  0  0  0
 10 12  1  0  0  0  0
 10 13  1  0  0  0  0
 13 14  1  0  0  0  0
 13 15  1  0  0  0  0
 15 16  1  0  0  0  0
 15 17  1  0  0  0  0
  1 18  1  0  0  0  0
 15 18  1  0  0  0  0
 18 19  1  0  0  0  0
 18 20  1  0  0  0  0
 13 21  1  0  0  0  0
 21 22  1  0  0  0  0
M  END
> <VConfSearch Rank>
498

> <Conf_Id>
144

> <Delta U+W>
-3.291

> <U+W>
3.132

> <U>
5.411

> <W>
-2.279

> <W(PB)>
-4.300

> <W(SA)>
2.021

> <Valence>
11.909

> <Coulomb>
-8.733

> <VdW>
2.236

> <VdW6>
-8.936

> <VdW12>
11.172

> <Bond>
0.223

> <Angle>
2.457

> <Pdih>
9.228

> <Idih>
0.000

> <Tether>
0.000

$$$$
VeraChem MOL file


 22 22  0  0  0  0  0  0  0  0999 V2000     
   18.8833   20.6403   23.4928 C   0  0  0  0  0  0  0  0  0  0  0  0
   18.1264   21.3939   23.7498 H   0  0  0  0  0  0  0  0  0  0  0  0
   19.2974   20.2877   24.4472 H   0  0  0  0  0  0  0  0  0  0  0  0
   19.9740   21.3295   22.6399 C   0  0  0  0  0  0  0  0  0  0  0  0
   19.6433   21.3784   21.5935 H   0  0  0  0  0  0  0  0  0  0  0  0
   20.0720   22.3744   22.9650 H   0  0  0  0  0  0  0  0  0  0  0  0
   21.3748   20.6748   22.7118 C   0  0  0  0  0  0  0  0  0  0  0  0
   21.8986   21.0483   23.6023 H   0  0  0  0  0  0  0  0  0  0  0  0
   21.9613   21.0259   21.8517 H   0  0  0  0  0  0  0  0  0  0  0  0
   21.4083   19.1269   22.7466 C   0  0  0  0  0  0  0  0  0  0  0  0
   22.4201   18.8065   22.4635 H   0  0  0  0  0  0  0  0  0  0  0  0
   21.2667   18.7865   23.7805 H   0  0  0  0  0  0  0  0  0  0  0  0
   20.3732   18.4322   21.8337 C   0  0  0  0  0  0  0  0  0  0  0  0
   20.2247   19.0305   20.9235 H   0  0  0  0  0  0  0  0  0  0  0  0
   19.0147   18.2133   22.5377 C   0  0  0  0  0  0  0  0  0  0  0  0
   18.4213   17.5048   21.9444 H   0  0  0  0  0  0  0  0  0  0  0  0
   19.1795   17.7313   23.5101 H   0  0  0  0  0  0  0  0  0  0  0  0
   18.1675   19.4916   22.7424 C   0  0  0  0  0  0  0  0  0  0  0  0
   17.8166   19.8559   21.7671 H   0  0  0  0  0  0  0  0  0  0  0  0
   17.2629   19.2177   23.3024 H   0  0  0  0  0  0  0  0  0  0  0  0
   20.8848   17.1578   21.4671 O   0  0  0  0  0  0  0  0  0  0  0  0
   21.0047   16.6577   22.3005 H   0  0  0  0  0  0  0  0  0  0  0  0
  1  2  1  0  0  0  0
  1  3  1  0  0  0  0
  1  4  1  0  0  0  0
  4  5  1  0  0  0  0
  4  6  1  0  0  0  0
  4  7  1  0  0  0  0
  7  8  1  0  0  0  0
  7  9  1  0  0  0  0
  7 10  1  0  0  0  0
 10 11  1  0  0  0  0
 10 12  1  0  0  0  0
 10 13  1  0  0  0  0
 13 14  1  0  0  0  0
 13 15  1  0  0  0  0
 15 16  1  0  0  0  0
 15 17  1  0  0  0  0
  1 18  1  0  0  0  0
 15 18  1  0  0  0  0
 18 19  1  0  0  0  0
 18 20  1  0  0  0  0
 13 21  1  0  0  0  0
 21 22  1  0  0  0  0
M  END
> <VConfSearch Rank>
499

> <Conf_Id>
76

> <Delta U+W>
-3.175

> <U+W>
3.248

> <U>
5.336

> <W>
-2.088

> <W(PB)>
-4.098

> <W(SA)>
2.010

> <Valence>
12.390

> <Coulomb>
-9.270

> <VdW>
2.216

> <VdW6>
-8.967

> <VdW12>
11.183

> <Bond>
0.218

> <Angle>
2.426

> <Pdih>
9.745

> <Idih>
0.000

> <Tether>
0.000

$$$$
VeraChem MOL file


 22 22  0  0  0  0  0  0  0  0999 V2000     
   19.6687   18.6256   21.1102 C   0  0  0  0  0  0  0  0  0  0  0  0
   18.7848   18.7516   20.4701 H   0  0  0  0  0  0  0  0  0  0  0  0
   20.3105   17.8997   20.5926 H   0  0  0  0  0  0  0  0  0  0  0  0
   19.2084   18.0176   22.4567 C   0  0  0  0  0  0  0  0  0  0  0  0
   18.2285   18.4317   22.7301 H   0  0  0  0  0  0  0  0  0  0  0  0
   19.0406   16.9427   22.3040 H   0  0  0  0  0  0  0  0  0  0  0  0
   20.1944   18.2098   23.6325 C   0  0  0  0  0  0  0  0  0  0  0  0
   21.2352   18.1261   23.2911 H   0  0  0  0  0  0  0  0  0  0  0  0
   20.0404   17.3879   24.3446 H   0  0  0  0  0  0  0  0  0  0  0  0
   19.9691   19.5413   24.3929 C   0  0  0  0  0  0  0  0  0  0  0  0
   18.9079   19.6303   24.6580 H   0  0  0  0  0  0  0  0  0  0  0  0
   20.5086   19.4948   25.3480 H   0  0  0  0  0  0  0  0  0  0  0  0
   20.4086   20.8293   23.6600 C   0  0  0  0  0  0  0  0  0  0  0  0
   20.0185   21.6753   24.2441 H   0  0  0  0  0  0  0  0  0  0  0  0
   19.8670   20.9837   22.2166 C   0  0  0  0  0  0  0  0  0  0  0  0
   18.7703   20.9391   22.2240 H   0  0  0  0  0  0  0  0  0  0  0  0
   20.1196   21.9958   21.8748 H   0  0  0  0  0  0  0  0  0  0  0  0
   20.4320   19.9693   21.1886 C   0  0  0  0  0  0  0  0  0  0  0  0
   20.4104   20.4279   20.1908 H   0  0  0  0  0  0  0  0  0  0  0  0
   21.4924   19.7741   21.3957 H   0  0  0  0  0  0  0  0  0  0  0  0
   21.8305   20.9082   23.6604 O   0  0  0  0  0  0  0  0  0  0  0  0
   22.0657   21.7061   23.1444 H   0  0  0  0  0  0  0  0  0  0  0  0
  1  2  1  0  0  0  0
  1  3  1  0  0  0  0
  1  4  1  0  0  0  0
  4  5  1  0  0  0  0
  4  6  1  0  0  0  0
  4  7  1  0  0  0  0
  7  8  1  0  0  0  0
  7  9  1  0  0  0  0
  7 10  1  0  0  0  0
 10 11  1  0  0  0  0
 10 12  1  0  0  0  0
 10 13  1  0  0  0  0
 13 14  1  0  0  0  0
 13 15  1  0  0  0  0
 15 16  1  0  0  0  0
 15 17  1  0  0  0  0
  1 18  1  0  0  0  0
 15 18  1  0  0  0  0
 18 19  1  0  0  0  0
 18 20  1  0  0  0  0
 13 21  1  0  0  0  0
 21 22  1  0  0  0  0
M  END
> <VConfSearch Rank>
500

> <Conf_Id>
95

> <Delta U+W>
-2.289

> <U+W>
4.134

> <U>
6.373

> <W>
-2.240

> <W(PB)>
-4.254

> <W(SA)>
2.015

> <Valence>
12.093

> <Coulomb>
-8.058

> <VdW>
2.339

> <VdW6>
-9.683

> <VdW12>
12.022

> <Bond>
0.268

> <Angle>
3.005

> <Pdih>
8.820

> <Idih>
0.000

> <Tether>
0.000

$$$$
VeraChem MOL file


 22 22  0  0  0  0  0  0  0  0999 V2000     
   21.2927   18.5715   23.6961 C   0  0  0  0  0  0  0  0  0  0  0  0
   21.2640   18.3152   24.7640 H   0  0  0  0  0  0  0  0  0  0  0  0
   22.1755   18.0588   23.2903 H   0  0  0  0  0  0  0  0  0  0  0  0
   21.4991   20.0998   23.5705 C   0  0  0  0  0  0  0  0  0  0  0  0
   20.9572   20.6099   24.3784 H   0  0  0  0  0  0  0  0  0  0  0  0
   22.5616   20.3145   23.7489 H   0  0  0  0  0  0  0  0  0  0  0  0
   21.0857   20.7074   22.2098 C   0  0  0  0  0  0  0  0  0  0  0  0
   21.3349   20.0275   21.3837 H   0  0  0  0  0  0  0  0  0  0  0  0
   21.6817   21.6156   22.0476 H   0  0  0  0  0  0  0  0  0  0  0  0
   19.5899   21.1097   22.1648 C   0  0  0  0  0  0  0  0  0  0  0  0
   19.3548   21.7168   23.0486 H   0  0  0  0  0  0  0  0  0  0  0  0
   19.4308   21.7735   21.3051 H   0  0  0  0  0  0  0  0  0  0  0  0
   18.5735   19.9482   22.0781 C   0  0  0  0  0  0  0  0  0  0  0  0
   17.5767   20.3863   22.2316 H   0  0  0  0  0  0  0  0  0  0  0  0
   18.7507   18.8381   23.1442 C   0  0  0  0  0  0  0  0  0  0  0  0
   18.6945   19.2727   24.1504 H   0  0  0  0  0  0  0  0  0  0  0  0
   17.8870   18.1661   23.0592 H   0  0  0  0  0  0  0  0  0  0  0  0
   20.0393   17.9868   23.0021 C   0  0  0  0  0  0  0  0  0  0  0  0
   19.8526   16.9911   23.4262 H   0  0  0  0  0  0  0  0  0  0  0  0
   20.2566   17.8131   21.9399 H   0  0  0  0  0  0  0  0  0  0  0  0
   18.6131   19.3826   20.7714 O   0  0  0  0  0  0  0  0  0  0  0  0
   18.5143   20.1245   20.1405 H   0  0  0  0  0  0  0  0  0  0  0  0
  1  2  1  0  0  0  0
  1  3  1  0  0  0  0
  1  4  1  0  0  0  0
  4  5  1  0  0  0  0
  4  6  1  0  0  0  0
  4  7  1  0  0  0  0
  7  8  1  0  0  0  0
  7  9  1  0  0  0  0
  7 10  1  0  0  0  0
 10 11  1  0  0  0  0
 10 12  1  0  0  0  0
 10 13  1  0  0  0  0
 13 14  1  0  0  0  0
 13 15  1  0  0  0  0
 15 16  1  0  0  0  0
 15 17  1  0  0  0  0
  1 18  1  0  0  0  0
 15 18  1  0  0  0  0
 18 19  1  0  0  0  0
 18 20  1  0  0  0  0
 13 21  1  0  0  0  0
 21 22  1  0  0  0  0
M  END
> <VConfSearch Rank>
501

> <Conf_Id>
41

> <Delta U+W>
-2.114

> <U+W>
4.310

> <U>
6.598

> <W>
-2.289

> <W(PB)>
-4.294

> <W(SA)>
2.005

> <Valence>
12.082

> <Coulomb>
-7.801

> <VdW>
2.317

> <VdW6>
-9.658

> <VdW12>
11.975

> <Bond>
0.267

> <Angle>
3.051

> <Pdih>
8.764

> <Idih>
0.000

> <Tether>
0.000

$$$$
VeraChem MOL file


 22 22  0  0  0  0  0  0  0  0999 V2000     
   19.7995   17.8979   22.6467 C   0  0  0  0  0  0  0  0  0  0  0  0
   19.4249   16.8879   22.4321 H   0  0  0  0  0  0  0  0  0  0  0  0
   20.8044   17.7697   23.0721 H   0  0  0  0  0  0  0  0  0  0  0  0
   18.8487   18.5469   23.6772 C   0  0  0  0  0  0  0  0  0  0  0  0
   17.8688   18.7232   23.2131 H   0  0  0  0  0  0  0  0  0  0  0  0
   18.6719   17.8308   24.4911 H   0  0  0  0  0  0  0  0  0  0  0  0
   19.3700   19.8626   24.2956 C   0  0  0  0  0  0  0  0  0  0  0  0
   20.2354   19.6474   24.9365 H   0  0  0  0  0  0  0  0  0  0  0  0
   18.5944   20.2504   24.9695 H   0  0  0  0  0  0  0  0  0  0  0  0
   19.7297   20.9750   23.2736 C   0  0  0  0  0  0  0  0  0  0  0  0
   18.8926   21.1368   22.5828 H   0  0  0  0  0  0  0  0  0  0  0  0
   19.8402   21.9143   23.8305 H   0  0  0  0  0  0  0  0  0  0  0  0
   21.0399   20.7626   22.4721 C   0  0  0  0  0  0  0  0  0  0  0  0
   21.3152   21.7413   22.0529 H   0  0  0  0  0  0  0  0  0  0  0  0
   20.9468   19.7890   21.2686 C   0  0  0  0  0  0  0  0  0  0  0  0
   20.7691   20.3848   20.3639 H   0  0  0  0  0  0  0  0  0  0  0  0
   21.9256   19.3161   21.1144 H   0  0  0  0  0  0  0  0  0  0  0  0
   19.8643   18.6822   21.3176 C   0  0  0  0  0  0  0  0  0  0  0  0
   18.8796   19.1133   21.0920 H   0  0  0  0  0  0  0  0  0  0  0  0
   20.0699   17.9753   20.5023 H   0  0  0  0  0  0  0  0  0  0  0  0
   22.0940   20.3535   23.3395 O   0  0  0  0  0  0  0  0  0  0  0  0
   22.8991   20.2747   22.7885 H   0  0  0  0  0  0  0  0  0  0  0  0
  1  2  1  0  0  0  0
  1  3  1  0  0  0  0
  1  4  1  0  0  0  0
  4  5  1  0  0  0  0
  4  6  1  0  0  0  0
  4  7  1  0  0  0  0
  7  8  1  0  0  0  0
  7  9  1  0  0  0  0
  7 10  1  0  0  0  0
 10 11  1  0  0  0  0
 10 12  1  0  0  0  0
 10 13  1  0  0  0  0
 13 14  1  0  0  0  0
 13 15  1  0  0  0  0
 15 16  1  0  0  0  0
 15 17  1  0  0  0  0
  1 18  1  0  0  0  0
 15 18  1  0  0  0  0
 18 19  1  0  0  0  0
 18 20  1  0  0  0  0
 13 21  1  0  0  0  0
 21 22  1  0  0  0  0
M  END
> <VConfSearch Rank>
502

> <Conf_Id>
104

> <Delta U+W>
-1.172

> <U+W>
5.252

> <U>
7.482

> <W>
-2.230

> <W(PB)>
-4.220

> <W(SA)>
1.990

> <Valence>
12.309

> <Coulomb>
-7.084

> <VdW>
2.258

> <VdW6>
-9.770

> <VdW12>
12.028

> <Bond>
0.284

> <Angle>
3.491

> <Pdih>
8.535

> <Idih>
0.000

> <Tether>
0.000

$$$$
VeraChem MOL file


 22 22  0  0  0  0  0  0  0  0999 V2000     
   20.5719   20.7610   21.6341 C   0  0  0  0  0  0  0  0  0  0  0  0
   20.2057   20.2263   20.7473 H   0  0  0  0  0  0  0  0  0  0  0  0
   21.0427   21.6803   21.2596 H   0  0  0  0  0  0  0  0  0  0  0  0
   21.6570   19.9384   22.3658 C   0  0  0  0  0  0  0  0  0  0  0  0
   22.6093   20.0609   21.8315 H   0  0  0  0  0  0  0  0  0  0  0  0
   21.8319   20.3701   23.3600 H   0  0  0  0  0  0  0  0  0  0  0  0
   21.3780   18.4191   22.4904 C   0  0  0  0  0  0  0  0  0  0  0  0
   21.9251   18.0354   23.3626 H   0  0  0  0  0  0  0  0  0  0  0  0
   21.8214   17.9122   21.6225 H   0  0  0  0  0  0  0  0  0  0  0  0
   19.8934   17.9737   22.5840 C   0  0  0  0  0  0  0  0  0  0  0  0
   19.4513   17.9852   21.5793 H   0  0  0  0  0  0  0  0  0  0  0  0
   19.8744   16.9210   22.8945 H   0  0  0  0  0  0  0  0  0  0  0  0
   18.9769   18.7728   23.5387 C   0  0  0  0  0  0  0  0  0  0  0  0
   18.1244   18.1260   23.7912 H   0  0  0  0  0  0  0  0  0  0  0  0
   18.3936   20.0459   22.8851 C   0  0  0  0  0  0  0  0  0  0  0  0
   17.8660   19.7592   21.9661 H   0  0  0  0  0  0  0  0  0  0  0  0
   17.6232   20.4515   23.5538 H   0  0  0  0  0  0  0  0  0  0  0  0
   19.3994   21.1763   22.5543 C   0  0  0  0  0  0  0  0  0  0  0  0
   18.8447   21.9865   22.0617 H   0  0  0  0  0  0  0  0  0  0  0  0
   19.7912   21.6101   23.4843 H   0  0  0  0  0  0  0  0  0  0  0  0
   19.6703   19.1085   24.7307 O   0  0  0  0  0  0  0  0  0  0  0  0
   20.4519   19.6070   24.4196 H   0  0  0  0  0  0  0  0  0  0  0  0
  1  2  1  0  0  0  0
  1  3  1  0  0  0  0
  1  4  1  0  0  0  0
  4  5  1  0  0  0  0
  4  6  1  0  0  0  0
  4  7  1  0  0  0  0
  7  8  1  0  0  0  0
  7  9  1  0  0  0  0
  7 10  1  0  0  0  0
 10 11  1  0  0  0  0
 10 12  1  0  0  0  0
 10 13  1  0  0  0  0
 13 14  1  0  0  0  0
 13 15  1  0  0  0  0
 15 16  1  0  0  0  0
 15 17  1  0  0  0  0
  1 18  1  0  0  0  0
 15 18  1  0  0  0  0
 18 19  1  0  0  0  0
 18 20  1  0  0  0  0
 13 21  1  0  0  0  0
 21 22  1  0  0  0  0
M  END
> <VConfSearch Rank>
503

> <Conf_Id>
99

> <Delta U+W>
-3.852

> <U+W>
2.572

> <U>
3.922

> <W>
-1.350

> <W(PB)>
-3.345

> <W(SA)>
1.995

> <Valence>
12.571

> <Coulomb>
-10.581

> <VdW>
1.932

> <VdW6>
-10.483

> <VdW12>
12.415

> <Bond>
0.268

> <Angle>
3.728

> <Pdih>
8.575

> <Idih>
0.000

> <Tether>
0.000

$$$$
VeraChem MOL file


 22 22  0  0  0  0  0  0  0  0999 V2000     
   20.4497   18.6013   21.3900 C   0  0  0  0  0  0  0  0  0  0  0  0
   21.0877   17.8561   20.8951 H   0  0  0  0  0  0  0  0  0  0  0  0
   19.6257   18.7804   20.6864 H   0  0  0  0  0  0  0  0  0  0  0  0
   21.2883   19.8997   21.5758 C   0  0  0  0  0  0  0  0  0  0  0  0
   22.2892   19.7166   21.1612 H   0  0  0  0  0  0  0  0  0  0  0  0
   20.8719   20.7101   20.9627 H   0  0  0  0  0  0  0  0  0  0  0  0
   21.4644   20.3912   23.0353 C   0  0  0  0  0  0  0  0  0  0  0  0
   22.2234   21.1853   23.0442 H   0  0  0  0  0  0  0  0  0  0  0  0
   21.8973   19.5894   23.6464 H   0  0  0  0  0  0  0  0  0  0  0  0
   20.1878   20.9462   23.7260 C   0  0  0  0  0  0  0  0  0  0  0  0
   20.3313   20.8843   24.8125 H   0  0  0  0  0  0  0  0  0  0  0  0
   20.1121   22.0191   23.5041 H   0  0  0  0  0  0  0  0  0  0  0  0
   18.8253   20.2998   23.3740 C   0  0  0  0  0  0  0  0  0  0  0  0
   18.0986   20.6632   24.1147 H   0  0  0  0  0  0  0  0  0  0  0  0
   18.7708   18.7526   23.4118 C   0  0  0  0  0  0  0  0  0  0  0  0
   18.7466   18.4315   24.4611 H   0  0  0  0  0  0  0  0  0  0  0  0
   17.8037   18.4454   22.9920 H   0  0  0  0  0  0  0  0  0  0  0  0
   19.8942   17.9602   22.6874 C   0  0  0  0  0  0  0  0  0  0  0  0
   20.7176   17.7634   23.3851 H   0  0  0  0  0  0  0  0  0  0  0  0
   19.4982   16.9658   22.4403 H   0  0  0  0  0  0  0  0  0  0  0  0
   18.3940   20.7605   22.1032 O   0  0  0  0  0  0  0  0  0  0  0  0
   19.0679   20.4136   21.4848 H   0  0  0  0  0  0  0  0  0  0  0  0
  1  2  1  0  0  0  0
  1  3  1  0  0  0  0
  1  4  1  0  0  0  0
  4  5  1  0  0  0  0
  4  6  1  0  0  0  0
  4  7  1  0  0  0  0
  7  8  1  0  0  0  0
  7  9  1  0  0  0  0
  7 10  1  0  0  0  0
 10 11  1  0  0  0  0
 10 12  1  0  0  0  0
 10 13  1  0  0  0  0
 13 14  1  0  0  0  0
 13 15  1  0  0  0  0
 15 16  1  0  0  0  0
 15 17  1  0  0  0  0
  1 18  1  0  0  0  0
 15 18  1  0  0  0  0
 18 19  1  0  0  0  0
 18 20  1  0  0  0  0
 13 21  1  0  0  0  0
 21 22  1  0  0  0  0
M  END
> <VConfSearch Rank>
504

> <Conf_Id>
98

> <Delta U+W>
0.930

> <U+W>
7.353

> <U>
8.455

> <W>
-1.102

> <W(PB)>
-3.101

> <W(SA)>
2.000

> <Valence>
15.601

> <Coulomb>
-10.573

> <VdW>
3.427

> <VdW6>
-11.360

> <VdW12>
14.787

> <Bond>
0.471

> <Angle>
5.445

> <Pdih>
9.685

> <Idih>
0.000

> <Tether>
0.000

$$$$
VeraChem MOL file


 22 22  0  0  0  0  0  0  0  0999 V2000     
   18.4929   19.4192   21.8663 C   0  0  0  0  0  0  0  0  0  0  0  0
   18.0755   19.9971   22.7010 H   0  0  0  0  0  0  0  0  0  0  0  0
   17.6531   19.2714   21.1738 H   0  0  0  0  0  0  0  0  0  0  0  0
   18.9641   18.0324   22.3732 C   0  0  0  0  0  0  0  0  0  0  0  0
   18.0919   17.5256   22.8083 H   0  0  0  0  0  0  0  0  0  0  0  0
   19.2722   17.4140   21.5192 H   0  0  0  0  0  0  0  0  0  0  0  0
   20.0989   18.0387   23.4348 C   0  0  0  0  0  0  0  0  0  0  0  0
   21.0539   17.7673   22.9664 H   0  0  0  0  0  0  0  0  0  0  0  0
   19.8985   17.2339   24.1551 H   0  0  0  0  0  0  0  0  0  0  0  0
   20.2643   19.3715   24.2119 C   0  0  0  0  0  0  0  0  0  0  0  0
   19.2927   19.6707   24.6242 H   0  0  0  0  0  0  0  0  0  0  0  0
   20.8967   19.1826   25.0899 H   0  0  0  0  0  0  0  0  0  0  0  0
   20.8649   20.5595   23.4045 C   0  0  0  0  0  0  0  0  0  0  0  0
   20.2540   21.4508   23.6083 H   0  0  0  0  0  0  0  0  0  0  0  0
   20.9395   20.3657   21.8693 C   0  0  0  0  0  0  0  0  0  0  0  0
   21.4874   21.2097   21.4306 H   0  0  0  0  0  0  0  0  0  0  0  0
   21.5453   19.4813   21.6379 H   0  0  0  0  0  0  0  0  0  0  0  0
   19.5737   20.2593   21.1461 C   0  0  0  0  0  0  0  0  0  0  0  0
   19.1735   21.2707   20.9917 H   0  0  0  0  0  0  0  0  0  0  0  0
   19.7422   19.8456   20.1426 H   0  0  0  0  0  0  0  0  0  0  0  0
   22.1889   20.7965   23.8692 O   0  0  0  0  0  0  0  0  0  0  0  0
   22.5212   21.5822   23.3871 H   0  0  0  0  0  0  0  0  0  0  0  0
  1  2  1  0  0  0  0
  1  3  1  0  0  0  0
  1  4  1  0  0  0  0
  4  5  1  0  0  0  0
  4  6  1  0  0  0  0
  4  7  1  0  0  0  0
  7  8  1  0  0  0  0
  7  9  1  0  0  0  0
  7 10  1  0  0  0  0
 10 11  1  0  0  0  0
 10 12  1  0  0  0  0
 10 13  1  0  0  0  0
 13 14  1  0  0  0  0
 13 15  1  0  0  0  0
 15 16  1  0  0  0  0
 15 17  1  0  0  0  0
  1 18  1  0  0  0  0
 15 18  1  0  0  0  0
 18 19  1  0  0  0  0
 18 20  1  0  0  0  0
 13 21  1  0  0  0  0
 21 22  1  0  0  0  0
M  END
> <VConfSearch Rank>
505

> <Conf_Id>
141

> <Delta U+W>
0.000

> <U+W>
6.423

> <U>
8.781

> <W>
-2.358

> <W(PB)>
-4.373

> <W(SA)>
2.015

> <Valence>
13.328

> <Coulomb>
-8.387

> <VdW>
3.840

> <VdW6>
-9.744

> <VdW12>
13.584

> <Bond>
0.436

> <Angle>
3.478

> <Pdih>
9.415

> <Idih>
0.000

> <Tether>
0.000

$$$$
VeraChem MOL file


 22 22  0  0  0  0  0  0  0  0999 V2000     
   21.3735   20.6187   22.3222 C   0  0  0  0  0  0  0  0  0  0  0  0
   20.6934   21.4714   22.1914 H   0  0  0  0  0  0  0  0  0  0  0  0
   22.3895   21.0200   22.2058 H   0  0  0  0  0  0  0  0  0  0  0  0
   21.1560   19.5619   21.2124 C   0  0  0  0  0  0  0  0  0  0  0  0
   21.4948   19.9838   20.2563 H   0  0  0  0  0  0  0  0  0  0  0  0
   21.8040   18.6955   21.4025 H   0  0  0  0  0  0  0  0  0  0  0  0
   19.6972   19.0806   21.0370 C   0  0  0  0  0  0  0  0  0  0  0  0
   19.6868   18.2906   20.2737 H   0  0  0  0  0  0  0  0  0  0  0  0
   19.0893   19.8996   20.6288 H   0  0  0  0  0  0  0  0  0  0  0  0
   19.0297   18.5344   22.3228 C   0  0  0  0  0  0  0  0  0  0  0  0
   18.1061   18.0210   22.0249 H   0  0  0  0  0  0  0  0  0  0  0  0
   19.6639   17.7727   22.7948 H   0  0  0  0  0  0  0  0  0  0  0  0
   18.6802   19.6497   23.3335 C   0  0  0  0  0  0  0  0  0  0  0  0
   18.4238   20.5577   22.7690 H   0  0  0  0  0  0  0  0  0  0  0  0
   19.8153   19.9981   24.3230 C   0  0  0  0  0  0  0  0  0  0  0  0
   19.5878   20.9811   24.7552 H   0  0  0  0  0  0  0  0  0  0  0  0
   19.7967   19.2893   25.1617 H   0  0  0  0  0  0  0  0  0  0  0  0
   21.2531   20.0288   23.7468 C   0  0  0  0  0  0  0  0  0  0  0  0
   21.8803   20.6169   24.4306 H   0  0  0  0  0  0  0  0  0  0  0  0
   21.6755   19.0149   23.7591 H   0  0  0  0  0  0  0  0  0  0  0  0
   17.5456   19.2441   24.0894 O   0  0  0  0  0  0  0  0  0  0  0  0
   16.8166   19.1017   23.4500 H   0  0  0  0  0  0  0  0  0  0  0  0
  1  2  1  0  0  0  0
  1  3  1  0  0  0  0
  1  4  1  0  0  0  0
  4  5  1  0  0  0  0
  4  6  1  0  0  0  0
  4  7  1  0  0  0  0
  7  8  1  0  0  0  0
  7  9  1  0  0  0  0
  7 10  1  0  0  0  0
 10 11  1  0  0  0  0
 10 12  1  0  0  0  0
 10 13  1  0  0  0  0
 13 14  1  0  0  0  0
 13 15  1  0  0  0  0
 15 16  1  0  0  0  0
 15 17  1  0  0  0  0
  1 18  1  0  0  0  0
 15 18  1  0  0  0  0
 18 19  1  0  0  0  0
 18 20  1  0  0  0  0
 13 21  1  0  0  0  0
 21 22  1  0  0  0  0
M  END
> <VConfSearch Rank>
506

> <Conf_Id>
144

> <Delta U+W>
-3.291

> <U+W>
3.132

> <U>
5.411

> <W>
-2.279

> <W(PB)>
-4.300

> <W(SA)>
2.021

> <Valence>
11.909

> <Coulomb>
-8.733

> <VdW>
2.236

> <VdW6>
-8.936

> <VdW12>
11.172

> <Bond>
0.223

> <Angle>
2.457

> <Pdih>
9.228

> <Idih>
0.000

> <Tether>
0.000

$$$$
VeraChem MOL file


 22 22  0  0  0  0  0  0  0  0999 V2000     
   20.0198   17.8975   23.1594 C   0  0  0  0  0  0  0  0  0  0  0  0
   19.8820   16.9438   23.6869 H   0  0  0  0  0  0  0  0  0  0  0  0
   20.7075   17.6887   22.3286 H   0  0  0  0  0  0  0  0  0  0  0  0
   20.6442   18.9068   24.1512 C   0  0  0  0  0  0  0  0  0  0  0  0
   19.8523   19.3460   24.7730 H   0  0  0  0  0  0  0  0  0  0  0  0
   21.2960   18.3628   24.8485 H   0  0  0  0  0  0  0  0  0  0  0  0
   21.4796   20.0356   23.5002 C   0  0  0  0  0  0  0  0  0  0  0  0
   22.4955   19.6636   23.3089 H   0  0  0  0  0  0  0  0  0  0  0  0
   21.5918   20.8453   24.2342 H   0  0  0  0  0  0  0  0  0  0  0  0
   20.9257   20.6256   22.1798 C   0  0  0  0  0  0  0  0  0  0  0  0
   21.4077   21.5993   22.0188 H   0  0  0  0  0  0  0  0  0  0  0  0
   21.2444   19.9935   21.3409 H   0  0  0  0  0  0  0  0  0  0  0  0
   19.3907   20.7966   22.1361 C   0  0  0  0  0  0  0  0  0  0  0  0
   19.0207   21.0588   23.1375 H   0  0  0  0  0  0  0  0  0  0  0  0
   18.6671   19.5273   21.6318 C   0  0  0  0  0  0  0  0  0  0  0  0
   17.6297   19.7889   21.3839 H   0  0  0  0  0  0  0  0  0  0  0  0
   19.1276   19.1915   20.6936 H   0  0  0  0  0  0  0  0  0  0  0  0
   18.6361   18.3476   22.6324 C   0  0  0  0  0  0  0  0  0  0  0  0
   17.9892   18.6073   23.4814 H   0  0  0  0  0  0  0  0  0  0  0  0
   18.1540   17.4924   22.1396 H   0  0  0  0  0  0  0  0  0  0  0  0
   19.0847   21.8578   21.2413 O   0  0  0  0  0  0  0  0  0  0  0  0
   19.4298   21.5889   20.3651 H   0  0  0  0  0  0  0  0  0  0  0  0
  1  2  1  0  0  0  0
  1  3  1  0  0  0  0
  1  4  1  0  0  0  0
  4  5  1  0  0  0  0
  4  6  1  0  0  0  0
  4  7  1  0  0  0  0
  7  8  1  0  0  0  0
  7  9  1  0  0  0  0
  7 10  1  0  0  0  0
 10 11  1  0  0  0  0
 10 12  1  0  0  0  0
 10 13  1  0  0  0  0
 13 14  1  0  0  0  0
 13 15  1  0  0  0  0
 15 16  1  0  0  0  0
 15 17  1  0  0  0  0
  1 18  1  0  0  0  0
 15 18  1  0  0  0  0
 18 19  1  0  0  0  0
 18 20  1  0  0  0  0
 13 21  1  0  0  0  0
 21 22  1  0  0  0  0
M  END
> <VConfSearch Rank>
507

> <Conf_Id>
76

> <Delta U+W>
-3.175

> <U+W>
3.248

> <U>
5.336

> <W>
-2.088

> <W(PB)>
-4.098

> <W(SA)>
2.010

> <Valence>
12.390

> <Coulomb>
-9.270

> <VdW>
2.216

> <VdW6>
-8.967

> <VdW12>
11.183

> <Bond>
0.218

> <Angle>
2.426

> <Pdih>
9.745

> <Idih>
0.000

> <Tether>
0.000

$$$$
VeraChem MOL file


 22 22  0  0  0  0  0  0  0  0999 V2000     
   18.7111   18.8451   21.6077 C   0  0  0  0  0  0  0  0  0  0  0  0
   18.8268   18.1375   20.7755 H   0  0  0  0  0  0  0  0  0  0  0  0
   17.6286   18.9863   21.7307 H   0  0  0  0  0  0  0  0  0  0  0  0
   19.3482   20.1921   21.1899 C   0  0  0  0  0  0  0  0  0  0  0  0
   20.2439   20.0015   20.5834 H   0  0  0  0  0  0  0  0  0  0  0  0
   18.6450   20.7071   20.5212 H   0  0  0  0  0  0  0  0  0  0  0  0
   19.7106   21.1355   22.3604 C   0  0  0  0  0  0  0  0  0  0  0  0
   18.9575   21.0800   23.1583 H   0  0  0  0  0  0  0  0  0  0  0  0
   19.6834   22.1681   21.9871 H   0  0  0  0  0  0  0  0  0  0  0  0
   21.1307   20.8746   22.9237 C   0  0  0  0  0  0  0  0  0  0  0  0
   21.8510   20.8646   22.0958 H   0  0  0  0  0  0  0  0  0  0  0  0
   21.4189   21.7255   23.5549 H   0  0  0  0  0  0  0  0  0  0  0  0
   21.3094   19.5835   23.7545 C   0  0  0  0  0  0  0  0  0  0  0  0
   22.3896   19.4586   23.9178 H   0  0  0  0  0  0  0  0  0  0  0  0
   20.7981   18.2875   23.0767 C   0  0  0  0  0  0  0  0  0  0  0  0
   21.2944   18.1542   22.1067 H   0  0  0  0  0  0  0  0  0  0  0  0
   21.1233   17.4404   23.6943 H   0  0  0  0  0  0  0  0  0  0  0  0
   19.2597   18.1980   22.9018 C   0  0  0  0  0  0  0  0  0  0  0  0
   18.9649   17.1399   22.9006 H   0  0  0  0  0  0  0  0  0  0  0  0
   18.7553   18.6392   23.7715 H   0  0  0  0  0  0  0  0  0  0  0  0
   20.6855   19.7512   25.0236 O   0  0  0  0  0  0  0  0  0  0  0  0
   20.7765   18.8977   25.4941 H   0  0  0  0  0  0  0  0  0  0  0  0
  1  2  1  0  0  0  0
  1  3  1  0  0  0  0
  1  4  1  0  0  0  0
  4  5  1  0  0  0  0
  4  6  1  0  0  0  0
  4  7  1  0  0  0  0
  7  8  1  0  0  0  0
  7  9  1  0  0  0  0
  7 10  1  0  0  0  0
 10 11  1  0  0  0  0
 10 12  1  0  0  0  0
 10 13  1  0  0  0  0
 13 14  1  0  0  0  0
 13 15  1  0  0  0  0
 15 16  1  0  0  0  0
 15 17  1  0  0  0  0
  1 18  1  0  0  0  0
 15 18  1  0  0  0  0
 18 19  1  0  0  0  0
 18 20  1  0  0  0  0
 13 21  1  0  0  0  0
 21 22  1  0  0  0  0
M  END
> <VConfSearch Rank>
508

> <Conf_Id>
95

> <Delta U+W>
-2.289

> <U+W>
4.134

> <U>
6.373

> <W>
-2.240

> <W(PB)>
-4.254

> <W(SA)>
2.015

> <Valence>
12.093

> <Coulomb>
-8.058

> <VdW>
2.339

> <VdW6>
-9.683

> <VdW12>
12.022

> <Bond>
0.268

> <Angle>
3.005

> <Pdih>
8.820

> <Idih>
0.000

> <Tether>
0.000

$$$$
VeraChem MOL file


 22 22  0  0  0  0  0  0  0  0999 V2000     
   20.6585   18.1834   23.7968 C   0  0  0  0  0  0  0  0  0  0  0  0
   21.1465   18.2381   24.7795 H   0  0  0  0  0  0  0  0  0  0  0  0
   20.5543   17.1125   23.5752 H   0  0  0  0  0  0  0  0  0  0  0  0
   21.6036   18.8217   22.7510 C   0  0  0  0  0  0  0  0  0  0  0  0
   22.1282   19.6739   23.2038 H   0  0  0  0  0  0  0  0  0  0  0  0
   22.3866   18.0898   22.5098 H   0  0  0  0  0  0  0  0  0  0  0  0
   20.9197   19.2756   21.4403 C   0  0  0  0  0  0  0  0  0  0  0  0
   20.1320   18.5699   21.1430 H   0  0  0  0  0  0  0  0  0  0  0  0
   21.6701   19.2504   20.6386 H   0  0  0  0  0  0  0  0  0  0  0  0
   20.3666   20.7207   21.5243 C   0  0  0  0  0  0  0  0  0  0  0  0
   21.1533   21.3845   21.9057 H   0  0  0  0  0  0  0  0  0  0  0  0
   20.1546   21.0750   20.5072 H   0  0  0  0  0  0  0  0  0  0  0  0
   19.0958   20.9157   22.3828 C   0  0  0  0  0  0  0  0  0  0  0  0
   18.9419   22.0001   22.4804 H   0  0  0  0  0  0  0  0  0  0  0  0
   19.1763   20.3374   23.8178 C   0  0  0  0  0  0  0  0  0  0  0  0
   20.0265   20.7795   24.3528 H   0  0  0  0  0  0  0  0  0  0  0  0
   18.2784   20.6721   24.3531 H   0  0  0  0  0  0  0  0  0  0  0  0
   19.2390   18.7900   23.9028 C   0  0  0  0  0  0  0  0  0  0  0  0
   18.8069   18.4718   24.8610 H   0  0  0  0  0  0  0  0  0  0  0  0
   18.5934   18.3475   23.1327 H   0  0  0  0  0  0  0  0  0  0  0  0
   17.9739   20.3685   21.6967 O   0  0  0  0  0  0  0  0  0  0  0  0
   17.9804   20.7518   20.7961 H   0  0  0  0  0  0  0  0  0  0  0  0
  1  2  1  0  0  0  0
  1  3  1  0  0  0  0
  1  4  1  0  0  0  0
  4  5  1  0  0  0  0
  4  6  1  0  0  0  0
  4  7  1  0  0  0  0
  7  8  1  0  0  0  0
  7  9  1  0  0  0  0
  7 10  1  0  0  0  0
 10 11  1  0  0  0  0
 10 12  1  0  0  0  0
 10 13  1  0  0  0  0
 13 14  1  0  0  0  0
 13 15  1  0  0  0  0
 15 16  1  0  0  0  0
 15 17  1  0  0  0  0
  1 18  1  0  0  0  0
 15 18  1  0  0  0  0
 18 19  1  0  0  0  0
 18 20  1  0  0  0  0
 13 21  1  0  0  0  0
 21 22  1  0  0  0  0
M  END
> <VConfSearch Rank>
509

> <Conf_Id>
41

> <Delta U+W>
-2.114

> <U+W>
4.310

> <U>
6.598

> <W>
-2.289

> <W(PB)>
-4.294

> <W(SA)>
2.005

> <Valence>
12.082

> <Coulomb>
-7.801

> <VdW>
2.317

> <VdW6>
-9.658

> <VdW12>
11.975

> <Bond>
0.267

> <Angle>
3.051

> <Pdih>
8.764

> <Idih>
0.000

> <Tether>
0.000

$$$$
VeraChem MOL file


 22 22  0  0  0  0  0  0  0  0999 V2000     
   19.5175   18.1151   23.3702 C   0  0  0  0  0  0  0  0  0  0  0  0
   18.9158   17.2573   23.7000 H   0  0  0  0  0  0  0  0  0  0  0  0
   20.5659   17.7889   23.4087 H   0  0  0  0  0  0  0  0  0  0  0  0
   19.2696   19.2760   24.3593 C   0  0  0  0  0  0  0  0  0  0  0  0
   18.2338   19.6280   24.2608 H   0  0  0  0  0  0  0  0  0  0  0  0
   19.3601   18.8895   25.3835 H   0  0  0  0  0  0  0  0  0  0  0  0
   20.2366   20.4704   24.2062 C   0  0  0  0  0  0  0  0  0  0  0  0
   21.2461   20.1649   24.5122 H   0  0  0  0  0  0  0  0  0  0  0  0
   19.9338   21.2450   24.9234 H   0  0  0  0  0  0  0  0  0  0  0  0
   20.2807   21.1064   22.7902 C   0  0  0  0  0  0  0  0  0  0  0  0
   19.2638   21.3413   22.4510 H   0  0  0  0  0  0  0  0  0  0  0  0
   20.7949   22.0722   22.8759 H   0  0  0  0  0  0  0  0  0  0  0  0
   21.0228   20.2890   21.7016 C   0  0  0  0  0  0  0  0  0  0  0  0
   21.2439   20.9857   20.8801 H   0  0  0  0  0  0  0  0  0  0  0  0
   20.2235   19.1190   21.0712 C   0  0  0  0  0  0  0  0  0  0  0  0
   19.7611   19.4849   20.1453 H   0  0  0  0  0  0  0  0  0  0  0  0
   20.9252   18.3368   20.7532 H   0  0  0  0  0  0  0  0  0  0  0  0
   19.1068   18.4661   21.9231 C   0  0  0  0  0  0  0  0  0  0  0  0
   18.2198   19.1139   21.9351 H   0  0  0  0  0  0  0  0  0  0  0  0
   18.7916   17.5450   21.4143 H   0  0  0  0  0  0  0  0  0  0  0  0
   22.2661   19.8052   22.2027 O   0  0  0  0  0  0  0  0  0  0  0  0
   22.7046   19.3349   21.4648 H   0  0  0  0  0  0  0  0  0  0  0  0
  1  2  1  0  0  0  0
  1  3  1  0  0  0  0
  1  4  1  0  0  0  0
  4  5  1  0  0  0  0
  4  6  1  0  0  0  0
  4  7  1  0  0  0  0
  7  8  1  0  0  0  0
  7  9  1  0  0  0  0
  7 10  1  0  0  0  0
 10 11  1  0  0  0  0
 10 12  1  0  0  0  0
 10 13  1  0  0  0  0
 13 14  1  0  0  0  0
 13 15  1  0  0  0  0
 15 16  1  0  0  0  0
 15 17  1  0  0  0  0
  1 18  1  0  0  0  0
 15 18  1  0  0  0  0
 18 19  1  0  0  0  0
 18 20  1  0  0  0  0
 13 21  1  0  0  0  0
 21 22  1  0  0  0  0
M  END
> <VConfSearch Rank>
510

> <Conf_Id>
104

> <Delta U+W>
-1.172

> <U+W>
5.252

> <U>
7.482

> <W>
-2.230

> <W(PB)>
-4.220

> <W(SA)>
1.990

> <Valence>
12.309

> <Coulomb>
-7.084

> <VdW>
2.258

> <VdW6>
-9.770

> <VdW12>
12.028

> <Bond>
0.284

> <Angle>
3.491

> <Pdih>
8.535

> <Idih>
0.000

> <Tether>
0.000

$$$$
VeraChem MOL file


 22 22  0  0  0  0  0  0  0  0999 V2000     
   20.3108   20.9781   21.8255 C   0  0  0  0  0  0  0  0  0  0  0  0
   21.3892   20.7980   21.7207 H   0  0  0  0  0  0  0  0  0  0  0  0
   20.1173   21.9445   21.3401 H   0  0  0  0  0  0  0  0  0  0  0  0
   19.9150   21.1091   23.3140 C   0  0  0  0  0  0  0  0  0  0  0  0
   20.1727   22.1206   23.6573 H   0  0  0  0  0  0  0  0  0  0  0  0
   18.8228   21.0476   23.4067 H   0  0  0  0  0  0  0  0  0  0  0  0
   20.5855   20.0984   24.2786 C   0  0  0  0  0  0  0  0  0  0  0  0
   19.9373   19.9733   25.1569 H   0  0  0  0  0  0  0  0  0  0  0  0
   21.5122   20.5467   24.6624 H   0  0  0  0  0  0  0  0  0  0  0  0
   20.9444   18.6999   23.7070 C   0  0  0  0  0  0  0  0  0  0  0  0
   21.8713   18.7776   23.1242 H   0  0  0  0  0  0  0  0  0  0  0  0
   21.1894   18.0418   24.5507 H   0  0  0  0  0  0  0  0  0  0  0  0
   19.8727   17.9956   22.8437 C   0  0  0  0  0  0  0  0  0  0  0  0
   20.0968   16.9193   22.8581 H   0  0  0  0  0  0  0  0  0  0  0  0
   19.9073   18.4394   21.3638 C   0  0  0  0  0  0  0  0  0  0  0  0
   20.9177   18.2699   20.9695 H   0  0  0  0  0  0  0  0  0  0  0  0
   19.2507   17.7716   20.7909 H   0  0  0  0  0  0  0  0  0  0  0  0
   19.4933   19.9028   21.0709 C   0  0  0  0  0  0  0  0  0  0  0  0
   19.6091   20.0756   19.9923 H   0  0  0  0  0  0  0  0  0  0  0  0
   18.4227   20.0355   21.2776 H   0  0  0  0  0  0  0  0  0  0  0  0
   18.5783   18.2046   23.3871 O   0  0  0  0  0  0  0  0  0  0  0  0
   18.4872   19.1777   23.4186 H   0  0  0  0  0  0  0  0  0  0  0  0
  1  2  1  0  0  0  0
  1  3  1  0  0  0  0
  1  4  1  0  0  0  0
  4  5  1  0  0  0  0
  4  6  1  0  0  0  0
  4  7  1  0  0  0  0
  7  8  1  0  0  0  0
  7  9  1  0  0  0  0
  7 10  1  0  0  0  0
 10 11  1  0  0  0  0
 10 12  1  0  0  0  0
 10 13  1  0  0  0  0
 13 14  1  0  0  0  0
 13 15  1  0  0  0  0
 15 16  1  0  0  0  0
 15 17  1  0  0  0  0
  1 18  1  0  0  0  0
 15 18  1  0  0  0  0
 18 19  1  0  0  0  0
 18 20  1  0  0  0  0
 13 21  1  0  0  0  0
 21 22  1  0  0  0  0
M  END
> <VConfSearch Rank>
511

> <Conf_Id>
99

> <Delta U+W>
-3.852

> <U+W>
2.572

> <U>
3.922

> <W>
-1.350

> <W(PB)>
-3.345

> <W(SA)>
1.995

> <Valence>
12.571

> <Coulomb>
-10.581

> <VdW>
1.932

> <VdW6>
-10.483

> <VdW12>
12.415

> <Bond>
0.268

> <Angle>
3.728

> <Pdih>
8.575

> <Idih>
0.000

> <Tether>
0.000

$$$$
VeraChem MOL file


 22 22  0  0  0  0  0  0  0  0999 V2000     
   21.5089   19.5280   21.8291 C   0  0  0  0  0  0  0  0  0  0  0  0
   22.0874   19.3169   20.9192 H   0  0  0  0  0  0  0  0  0  0  0  0
   22.2457   19.9019   22.5526 H   0  0  0  0  0  0  0  0  0  0  0  0
   20.8991   18.1857   22.3293 C   0  0  0  0  0  0  0  0  0  0  0  0
   21.2139   17.3936   21.6360 H   0  0  0  0  0  0  0  0  0  0  0  0
   21.3394   17.9071   23.2961 H   0  0  0  0  0  0  0  0  0  0  0  0
   19.3531   18.1381   22.4302 C   0  0  0  0  0  0  0  0  0  0  0  0
   19.0490   17.0965   22.6015 H   0  0  0  0  0  0  0  0  0  0  0  0
   18.9106   18.3984   21.4606 H   0  0  0  0  0  0  0  0  0  0  0  0
   18.7161   19.0091   23.5484 C   0  0  0  0  0  0  0  0  0  0  0  0
   17.6702   19.2033   23.2779 H   0  0  0  0  0  0  0  0  0  0  0  0
   18.6717   18.4128   24.4695 H   0  0  0  0  0  0  0  0  0  0  0  0
   19.3904   20.3585   23.8985 C   0  0  0  0  0  0  0  0  0  0  0  0
   18.6824   20.9151   24.5293 H   0  0  0  0  0  0  0  0  0  0  0  0
   19.7465   21.2770   22.7036 C   0  0  0  0  0  0  0  0  0  0  0  0
   18.8224   21.7394   22.3335 H   0  0  0  0  0  0  0  0  0  0  0  0
   20.3505   22.1073   23.0932 H   0  0  0  0  0  0  0  0  0  0  0  0
   20.4947   20.6513   21.4938 C   0  0  0  0  0  0  0  0  0  0  0  0
   19.7680   20.2864   20.7574 H   0  0  0  0  0  0  0  0  0  0  0  0
   21.0305   21.4586   20.9762 H   0  0  0  0  0  0  0  0  0  0  0  0
   20.5510   20.1223   24.6798 O   0  0  0  0  0  0  0  0  0  0  0  0
   21.1443   19.6288   24.0786 H   0  0  0  0  0  0  0  0  0  0  0  0
  1  2  1  0  0  0  0
  1  3  1  0  0  0  0
  1  4  1  0  0  0  0
  4  5  1  0  0  0  0
  4  6  1  0  0  0  0
  4  7  1  0  0  0  0
  7  8  1  0  0  0  0
  7  9  1  0  0  0  0
  7 10  1  0  0  0  0
 10 11  1  0  0  0  0
 10 12  1  0  0  0  0
 10 13  1  0  0  0  0
 13 14  1  0  0  0  0
 13 15  1  0  0  0  0
 15 16  1  0  0  0  0
 15 17  1  0  0  0  0
  1 18  1  0  0  0  0
 15 18  1  0  0  0  0
 18 19  1  0  0  0  0
 18 20  1  0  0  0  0
 13 21  1  0  0  0  0
 21 22  1  0  0  0  0
M  END
> <VConfSearch Rank>
512

> <Conf_Id>
98

> <Delta U+W>
0.930

> <U+W>
7.353

> <U>
8.455

> <W>
-1.102

> <W(PB)>
-3.101

> <W(SA)>
2.000

> <Valence>
15.601

> <Coulomb>
-10.573

> <VdW>
3.427

> <VdW6>
-11.360

> <VdW12>
14.787

> <Bond>
0.471

> <Angle>
5.445

> <Pdih>
9.685

> <Idih>
0.000

> <Tether>
0.000

$$$$
VeraChem MOL file


 22 22  0  0  0  0  0  0  0  0999 V2000     
   18.7346   20.6797   22.6724 C   0  0  0  0  0  0  0  0  0  0  0  0
   18.2615   20.0850   21.8804 H   0  0  0  0  0  0  0  0  0  0  0  0
   18.0192   21.4841   22.8909 H   0  0  0  0  0  0  0  0  0  0  0  0
   20.0438   21.3151   22.1393 C   0  0  0  0  0  0  0  0  0  0  0  0
   19.7795   21.9431   21.2775 H   0  0  0  0  0  0  0  0  0  0  0  0
   20.4529   22.0015   22.8930 H   0  0  0  0  0  0  0  0  0  0  0  0
   21.1555   20.3252   21.6932 C   0  0  0  0  0  0  0  0  0  0  0  0
   21.9419   20.2732   22.4573 H   0  0  0  0  0  0  0  0  0  0  0  0
   21.6505   20.7433   20.8061 H   0  0  0  0  0  0  0  0  0  0  0  0
   20.6636   18.8921   21.3588 C   0  0  0  0  0  0  0  0  0  0  0  0
   19.8348   18.9539   20.6426 H   0  0  0  0  0  0  0  0  0  0  0  0
   21.4645   18.3699   20.8182 H   0  0  0  0  0  0  0  0  0  0  0  0
   20.2256   18.0226   22.5737 C   0  0  0  0  0  0  0  0  0  0  0  0
   19.2705   17.5410   22.3189 H   0  0  0  0  0  0  0  0  0  0  0  0
   20.0439   18.7762   23.9151 C   0  0  0  0  0  0  0  0  0  0  0  0
   19.8569   18.0442   24.7116 H   0  0  0  0  0  0  0  0  0  0  0  0
   20.9846   19.2663   24.1935 H   0  0  0  0  0  0  0  0  0  0  0  0
   18.8933   19.8131   23.9439 C   0  0  0  0  0  0  0  0  0  0  0  0
   17.9450   19.2870   24.1192 H   0  0  0  0  0  0  0  0  0  0  0  0
   19.0384   20.4702   24.8121 H   0  0  0  0  0  0  0  0  0  0  0  0
   21.2061   17.0123   22.7817 O   0  0  0  0  0  0  0  0  0  0  0  0
   20.8787   16.4468   23.5118 H   0  0  0  0  0  0  0  0  0  0  0  0
  1  2  1  0  0  0  0
  1  3  1  0  0  0  0
  1  4  1  0  0  0  0
  4  5  1  0  0  0  0
  4  6  1  0  0  0  0
  4  7  1  0  0  0  0
  7  8  1  0  0  0  0
  7  9  1  0  0  0  0
  7 10  1  0  0  0  0
 10 11  1  0  0  0  0
 10 12  1  0  0  0  0
 10 13  1  0  0  0  0
 13 14  1  0  0  0  0
 13 15  1  0  0  0  0
 15 16  1  0  0  0  0
 15 17  1  0  0  0  0
  1 18  1  0  0  0  0
 15 18  1  0  0  0  0
 18 19  1  0  0  0  0
 18 20  1  0  0  0  0
 13 21  1  0  0  0  0
 21 22  1  0  0  0  0
M  END
> <VConfSearch Rank>
513

> <Conf_Id>
141

> <Delta U+W>
0.000

> <U+W>
6.423

> <U>
8.781

> <W>
-2.358

> <W(PB)>
-4.373

> <W(SA)>
2.015

> <Valence>
13.328

> <Coulomb>
-8.387

> <VdW>
3.840

> <VdW6>
-9.744

> <VdW12>
13.584

> <Bond>
0.436

> <Angle>
3.478

> <Pdih>
9.415

> <Idih>
0.000

> <Tether>
0.000

$$$$
VeraChem MOL file


 22 22  0  0  0  0  0  0  0  0999 V2000     
   19.2840   18.1973   23.4141 C   0  0  0  0  0  0  0  0  0  0  0  0
   18.9390   18.8373   24.2375 H   0  0  0  0  0  0  0  0  0  0  0  0
   18.9032   17.1902   23.6323 H   0  0  0  0  0  0  0  0  0  0  0  0
   20.8295   18.1187   23.3844 C   0  0  0  0  0  0  0  0  0  0  0  0
   21.1687   17.5616   24.2684 H   0  0  0  0  0  0  0  0  0  0  0  0
   21.1473   17.5240   22.5170 H   0  0  0  0  0  0  0  0  0  0  0  0
   21.5588   19.4818   23.3644 C   0  0  0  0  0  0  0  0  0  0  0  0
   22.6372   19.2919   23.2756 H   0  0  0  0  0  0  0  0  0  0  0  0
   21.4216   19.9832   24.3323 H   0  0  0  0  0  0  0  0  0  0  0  0
   21.1295   20.4366   22.2237 C   0  0  0  0  0  0  0  0  0  0  0  0
   21.8650   21.2505   22.1777 H   0  0  0  0  0  0  0  0  0  0  0  0
   21.1775   19.9264   21.2530 H   0  0  0  0  0  0  0  0  0  0  0  0
   19.7255   21.0413   22.4485 C   0  0  0  0  0  0  0  0  0  0  0  0
   19.5732   21.1649   23.5304 H   0  0  0  0  0  0  0  0  0  0  0  0
   18.5628   20.1900   21.8893 C   0  0  0  0  0  0  0  0  0  0  0  0
   17.6391   20.5320   22.3736 H   0  0  0  0  0  0  0  0  0  0  0  0
   18.4382   20.4034   20.8192 H   0  0  0  0  0  0  0  0  0  0  0  0
   18.6787   18.6553   22.0666 C   0  0  0  0  0  0  0  0  0  0  0  0
   17.6734   18.2248   21.9624 H   0  0  0  0  0  0  0  0  0  0  0  0
   19.2663   18.2332   21.2400 H   0  0  0  0  0  0  0  0  0  0  0  0
   19.6728   22.3206   21.8290 O   0  0  0  0  0  0  0  0  0  0  0  0
   20.3679   22.8676   22.2512 H   0  0  0  0  0  0  0  0  0  0  0  0
  1  2  1  0  0  0  0
  1  3  1  0  0  0  0
  1  4  1  0  0  0  0
  4  5  1  0  0  0  0
  4  6  1  0  0  0  0
  4  7  1  0  0  0  0
  7  8  1  0  0  0  0
  7  9  1  0  0  0  0
  7 10  1  0  0  0  0
 10 11  1  0  0  0  0
 10 12  1  0  0  0  0
 10 13  1  0  0  0  0
 13 14  1  0  0  0  0
 13 15  1  0  0  0  0
 15 16  1  0  0  0  0
 15 17  1  0  0  0  0
  1 18  1  0  0  0  0
 15 18  1  0  0  0  0
 18 19  1  0  0  0  0
 18 20  1  0  0  0  0
 13 21  1  0  0  0  0
 21 22  1  0  0  0  0
M  END
> <VConfSearch Rank>
514

> <Conf_Id>
144

> <Delta U+W>
-3.291

> <U+W>
3.132

> <U>
5.411

> <W>
-2.279

> <W(PB)>
-4.300

> <W(SA)>
2.021

> <Valence>
11.909

> <Coulomb>
-8.733

> <VdW>
2.236

> <VdW6>
-8.936

> <VdW12>
11.172

> <Bond>
0.223

> <Angle>
2.457

> <Pdih>
9.228

> <Idih>
0.000

> <Tether>
0.000

$$$$
VeraChem MOL file


 22 22  0  0  0  0  0  0  0  0999 V2000     
   18.2855   19.8249   23.0920 C   0  0  0  0  0  0  0  0  0  0  0  0
   17.3198   19.8538   23.6150 H   0  0  0  0  0  0  0  0  0  0  0  0
   18.1314   20.3507   22.1399 H   0  0  0  0  0  0  0  0  0  0  0  0
   18.6539   18.3425   22.8495 C   0  0  0  0  0  0  0  0  0  0  0  0
   19.1138   17.9270   23.7565 H   0  0  0  0  0  0  0  0  0  0  0  0
   17.7303   17.7667   22.6995 H   0  0  0  0  0  0  0  0  0  0  0  0
   19.5780   18.0861   21.6345 C   0  0  0  0  0  0  0  0  0  0  0  0
   18.9655   18.0361   20.7239 H   0  0  0  0  0  0  0  0  0  0  0  0
   20.0245   17.0887   21.7485 H   0  0  0  0  0  0  0  0  0  0  0  0
   20.7068   19.1199   21.4000 C   0  0  0  0  0  0  0  0  0  0  0  0
   21.4576   18.6550   20.7468 H   0  0  0  0  0  0  0  0  0  0  0  0
   20.3051   19.9701   20.8337 H   0  0  0  0  0  0  0  0  0  0  0  0
   21.3915   19.6394   22.6841 C   0  0  0  0  0  0  0  0  0  0  0  0
   21.4313   18.8343   23.4317 H   0  0  0  0  0  0  0  0  0  0  0  0
   20.6716   20.8687   23.2837 C   0  0  0  0  0  0  0  0  0  0  0  0
   21.3329   21.3364   24.0253 H   0  0  0  0  0  0  0  0  0  0  0  0
   20.5158   21.6206   22.4993 H   0  0  0  0  0  0  0  0  0  0  0  0
   19.3195   20.5668   23.9725 C   0  0  0  0  0  0  0  0  0  0  0  0
   19.4991   19.9891   24.8895 H   0  0  0  0  0  0  0  0  0  0  0  0
   18.8812   21.5194   24.3002 H   0  0  0  0  0  0  0  0  0  0  0  0
   22.7190   20.0279   22.3568 O   0  0  0  0  0  0  0  0  0  0  0  0
   22.6420   20.7416   21.6906 H   0  0  0  0  0  0  0  0  0  0  0  0
  1  2  1  0  0  0  0
  1  3  1  0  0  0  0
  1  4  1  0  0  0  0
  4  5  1  0  0  0  0
  4  6  1  0  0  0  0
  4  7  1  0  0  0  0
  7  8  1  0  0  0  0
  7  9  1  0  0  0  0
  7 10  1  0  0  0  0
 10 11  1  0  0  0  0
 10 12  1  0  0  0  0
 10 13  1  0  0  0  0
 13 14  1  0  0  0  0
 13 15  1  0  0  0  0
 15 16  1  0  0  0  0
 15 17  1  0  0  0  0
  1 18  1  0  0  0  0
 15 18  1  0  0  0  0
 18 19  1  0  0  0  0
 18 20  1  0  0  0  0
 13 21  1  0  0  0  0
 21 22  1  0  0  0  0
M  END
> <VConfSearch Rank>
515

> <Conf_Id>
76

> <Delta U+W>
-3.175

> <U+W>
3.248

> <U>
5.336

> <W>
-2.088

> <W(PB)>
-4.098

> <W(SA)>
2.010

> <Valence>
12.390

> <Coulomb>
-9.270

> <VdW>
2.216

> <VdW6>
-8.967

> <VdW12>
11.183

> <Bond>
0.218

> <Angle>
2.426

> <Pdih>
9.745

> <Idih>
0.000

> <Tether>
0.000

$$$$
VeraChem MOL file


 22 22  0  0  0  0  0  0  0  0999 V2000     
   20.1593   18.4606   24.2062 C   0  0  0  0  0  0  0  0  0  0  0  0
   20.8480   18.5585   25.0564 H   0  0  0  0  0  0  0  0  0  0  0  0
   19.4796   17.6377   24.4663 H   0  0  0  0  0  0  0  0  0  0  0  0
   20.9830   18.0559   22.9602 C   0  0  0  0  0  0  0  0  0  0  0  0
   21.9585   18.5599   22.9861 H   0  0  0  0  0  0  0  0  0  0  0  0
   21.2050   16.9826   23.0342 H   0  0  0  0  0  0  0  0  0  0  0  0
   20.2960   18.3342   21.6030 C   0  0  0  0  0  0  0  0  0  0  0  0
   19.2154   18.1452   21.6626 H   0  0  0  0  0  0  0  0  0  0  0  0
   20.6902   17.6193   20.8682 H   0  0  0  0  0  0  0  0  0  0  0  0
   20.5771   19.7621   21.0698 C   0  0  0  0  0  0  0  0  0  0  0  0
   21.6585   19.9480   21.0892 H   0  0  0  0  0  0  0  0  0  0  0  0
   20.2899   19.8034   20.0110 H   0  0  0  0  0  0  0  0  0  0  0  0
   19.8601   20.9185   21.8032 C   0  0  0  0  0  0  0  0  0  0  0  0
   20.3017   21.8534   21.4290 H   0  0  0  0  0  0  0  0  0  0  0  0
   20.0220   20.9227   23.3441 C   0  0  0  0  0  0  0  0  0  0  0  0
   21.0877   20.9461   23.6061 H   0  0  0  0  0  0  0  0  0  0  0  0
   19.6047   21.8665   23.7182 H   0  0  0  0  0  0  0  0  0  0  0  0
   19.3196   19.7546   24.0838 C   0  0  0  0  0  0  0  0  0  0  0  0
   19.0591   20.0844   25.0985 H   0  0  0  0  0  0  0  0  0  0  0  0
   18.3623   19.5229   23.5988 H   0  0  0  0  0  0  0  0  0  0  0  0
   18.4790   20.9103   21.4561 O   0  0  0  0  0  0  0  0  0  0  0  0
   18.0557   21.6211   21.9793 H   0  0  0  0  0  0  0  0  0  0  0  0
  1  2  1  0  0  0  0
  1  3  1  0  0  0  0
  1  4  1  0  0  0  0
  4  5  1  0  0  0  0
  4  6  1  0  0  0  0
  4  7  1  0  0  0  0
  7  8  1  0  0  0  0
  7  9  1  0  0  0  0
  7 10  1  0  0  0  0
 10 11  1  0  0  0  0
 10 12  1  0  0  0  0
 10 13  1  0  0  0  0
 13 14  1  0  0  0  0
 13 15  1  0  0  0  0
 15 16  1  0  0  0  0
 15 17  1  0  0  0  0
  1 18  1  0  0  0  0
 15 18  1  0  0  0  0
 18 19  1  0  0  0  0
 18 20  1  0  0  0  0
 13 21  1  0  0  0  0
 21 22  1  0  0  0  0
M  END
> <VConfSearch Rank>
516

> <Conf_Id>
95

> <Delta U+W>
-2.289

> <U+W>
4.134

> <U>
6.373

> <W>
-2.240

> <W(PB)>
-4.254

> <W(SA)>
2.015

> <Valence>
12.093

> <Coulomb>
-8.058

> <VdW>
2.339

> <VdW6>
-9.683

> <VdW12>
12.022

> <Bond>
0.268

> <Angle>
3.005

> <Pdih>
8.820

> <Idih>
0.000

> <Tether>
0.000

$$$$
VeraChem MOL file


 22 22  0  0  0  0  0  0  0  0999 V2000     
   19.7240   21.1283   23.8477 C   0  0  0  0  0  0  0  0  0  0  0  0
   20.4320   21.9129   24.1475 H   0  0  0  0  0  0  0  0  0  0  0  0
   18.7649   21.4002   24.3092 H   0  0  0  0  0  0  0  0  0  0  0  0
   20.2061   19.7861   24.4481 C   0  0  0  0  0  0  0  0  0  0  0  0
   21.3040   19.7531   24.4356 H   0  0  0  0  0  0  0  0  0  0  0  0
   19.9243   19.7687   25.5098 H   0  0  0  0  0  0  0  0  0  0  0  0
   19.6450   18.5206   23.7589 C   0  0  0  0  0  0  0  0  0  0  0  0
   18.5992   18.6683   23.4567 H   0  0  0  0  0  0  0  0  0  0  0  0
   19.6373   17.7066   24.4963 H   0  0  0  0  0  0  0  0  0  0  0  0
   20.5096   18.0614   22.5576 C   0  0  0  0  0  0  0  0  0  0  0  0
   21.5600   18.0067   22.8715 H   0  0  0  0  0  0  0  0  0  0  0  0
   20.2299   17.0325   22.2969 H   0  0  0  0  0  0  0  0  0  0  0  0
   20.4194   18.9289   21.2813 C   0  0  0  0  0  0  0  0  0  0  0  0
   21.2096   18.5777   20.6020 H   0  0  0  0  0  0  0  0  0  0  0  0
   20.6490   20.4456   21.4992 C   0  0  0  0  0  0  0  0  0  0  0  0
   21.6295   20.6132   21.9630 H   0  0  0  0  0  0  0  0  0  0  0  0
   20.7033   20.9112   20.5067 H   0  0  0  0  0  0  0  0  0  0  0  0
   19.5440   21.1699   22.3114 C   0  0  0  0  0  0  0  0  0  0  0  0
   19.5139   22.2238   22.0038 H   0  0  0  0  0  0  0  0  0  0  0  0
   18.5590   20.7628   22.0471 H   0  0  0  0  0  0  0  0  0  0  0  0
   19.1617   18.7101   20.6495 O   0  0  0  0  0  0  0  0  0  0  0  0
   19.0606   17.7414   20.5518 H   0  0  0  0  0  0  0  0  0  0  0  0
  1  2  1  0  0  0  0
  1  3  1  0  0  0  0
  1  4  1  0  0  0  0
  4  5  1  0  0  0  0
  4  6  1  0  0  0  0
  4  7  1  0  0  0  0
  7  8  1  0  0  0  0
  7  9  1  0  0  0  0
  7 10  1  0  0  0  0
 10 11  1  0  0  0  0
 10 12  1  0  0  0  0
 10 13  1  0  0  0  0
 13 14  1  0  0  0  0
 13 15  1  0  0  0  0
 15 16  1  0  0  0  0
 15 17  1  0  0  0  0
  1 18  1  0  0  0  0
 15 18  1  0  0  0  0
 18 19  1  0  0  0  0
 18 20  1  0  0  0  0
 13 21  1  0  0  0  0
 21 22  1  0  0  0  0
M  END
> <VConfSearch Rank>
517

> <Conf_Id>
41

> <Delta U+W>
-2.114

> <U+W>
4.310

> <U>
6.598

> <W>
-2.289

> <W(PB)>
-4.294

> <W(SA)>
2.005

> <Valence>
12.082

> <Coulomb>
-7.801

> <VdW>
2.317

> <VdW6>
-9.658

> <VdW12>
11.975

> <Bond>
0.267

> <Angle>
3.051

> <Pdih>
8.764

> <Idih>
0.000

> <Tether>
0.000

$$$$
VeraChem MOL file


 22 22  0  0  0  0  0  0  0  0999 V2000     
   20.1052   18.8533   21.1961 C   0  0  0  0  0  0  0  0  0  0  0  0
   19.8760   18.3268   20.2598 H   0  0  0  0  0  0  0  0  0  0  0  0
   20.9448   19.5261   20.9737 H   0  0  0  0  0  0  0  0  0  0  0  0
   20.5152   17.7964   22.2460 C   0  0  0  0  0  0  0  0  0  0  0  0
   19.6463   17.1743   22.5001 H   0  0  0  0  0  0  0  0  0  0  0  0
   21.2493   17.1171   21.7917 H   0  0  0  0  0  0  0  0  0  0  0  0
   21.1291   18.3769   23.5388 C   0  0  0  0  0  0  0  0  0  0  0  0
   22.1090   18.8177   23.3121 H   0  0  0  0  0  0  0  0  0  0  0  0
   21.3335   17.5410   24.2212 H   0  0  0  0  0  0  0  0  0  0  0  0
   20.2416   19.4101   24.2845 C   0  0  0  0  0  0  0  0  0  0  0  0
   19.2367   18.9987   24.4430 H   0  0  0  0  0  0  0  0  0  0  0  0
   20.6659   19.5501   25.2869 H   0  0  0  0  0  0  0  0  0  0  0  0
   20.1389   20.8130   23.6322 C   0  0  0  0  0  0  0  0  0  0  0  0
   19.7656   21.4955   24.4094 H   0  0  0  0  0  0  0  0  0  0  0  0
   19.1529   20.9352   22.4414 C   0  0  0  0  0  0  0  0  0  0  0  0
   18.1962   21.3069   22.8307 H   0  0  0  0  0  0  0  0  0  0  0  0
   19.5104   21.7182   21.7599 H   0  0  0  0  0  0  0  0  0  0  0  0
   18.8557   19.6584   21.6164 C   0  0  0  0  0  0  0  0  0  0  0  0
   18.1640   19.0092   22.1700 H   0  0  0  0  0  0  0  0  0  0  0  0
   18.3130   19.9626   20.7111 H   0  0  0  0  0  0  0  0  0  0  0  0
   21.4280   21.2742   23.2367 O   0  0  0  0  0  0  0  0  0  0  0  0
   21.3066   22.1740   22.8712 H   0  0  0  0  0  0  0  0  0  0  0  0
  1  2  1  0  0  0  0
  1  3  1  0  0  0  0
  1  4  1  0  0  0  0
  4  5  1  0  0  0  0
  4  6  1  0  0  0  0
  4  7  1  0  0  0  0
  7  8  1  0  0  0  0
  7  9  1  0  0  0  0
  7 10  1  0  0  0  0
 10 11  1  0  0  0  0
 10 12  1  0  0  0  0
 10 13  1  0  0  0  0
 13 14  1  0  0  0  0
 13 15  1  0  0  0  0
 15 16  1  0  0  0  0
 15 17  1  0  0  0  0
  1 18  1  0  0  0  0
 15 18  1  0  0  0  0
 18 19  1  0  0  0  0
 18 20  1  0  0  0  0
 13 21  1  0  0  0  0
 21 22  1  0  0  0  0
M  END
> <VConfSearch Rank>
518

> <Conf_Id>
104

> <Delta U+W>
-1.172

> <U+W>
5.252

> <U>
7.482

> <W>
-2.230

> <W(PB)>
-4.220

> <W(SA)>
1.990

> <Valence>
12.309

> <Coulomb>
-7.084

> <VdW>
2.258

> <VdW6>
-9.770

> <VdW12>
12.028

> <Bond>
0.284

> <Angle>
3.491

> <Pdih>
8.535

> <Idih>
0.000

> <Tether>
0.000

$$$$
VeraChem MOL file


 22 22  0  0  0  0  0  0  0  0999 V2000     
   19.0992   20.0580   23.9156 C   0  0  0  0  0  0  0  0  0  0  0  0
   18.9574   21.0682   23.5084 H   0  0  0  0  0  0  0  0  0  0  0  0
   18.5467   20.0346   24.8649 H   0  0  0  0  0  0  0  0  0  0  0  0
   20.5895   19.7932   24.2293 C   0  0  0  0  0  0  0  0  0  0  0  0
   20.8366   20.2727   25.1865 H   0  0  0  0  0  0  0  0  0  0  0  0
   20.7394   18.7195   24.4027 H   0  0  0  0  0  0  0  0  0  0  0  0
   21.5996   20.3043   23.1709 C   0  0  0  0  0  0  0  0  0  0  0  0
   22.5154   19.7017   23.2447 H   0  0  0  0  0  0  0  0  0  0  0  0
   21.9004   21.3254   23.4425 H   0  0  0  0  0  0  0  0  0  0  0  0
   21.1269   20.3337   21.6921 C   0  0  0  0  0  0  0  0  0  0  0  0
   20.4956   21.2178   21.5347 H   0  0  0  0  0  0  0  0  0  0  0  0
   22.0085   20.4931   21.0578 H   0  0  0  0  0  0  0  0  0  0  0  0
   20.3765   19.0880   21.1675 C   0  0  0  0  0  0  0  0  0  0  0  0
   20.4675   19.0889   20.0718 H   0  0  0  0  0  0  0  0  0  0  0  0
   18.8654   19.1175   21.4903 C   0  0  0  0  0  0  0  0  0  0  0  0
   18.4379   20.0449   21.0875 H   0  0  0  0  0  0  0  0  0  0  0  0
   18.3811   18.3035   20.9354 H   0  0  0  0  0  0  0  0  0  0  0  0
   18.4749   18.9922   22.9838 C   0  0  0  0  0  0  0  0  0  0  0  0
   17.3814   19.0714   23.0532 H   0  0  0  0  0  0  0  0  0  0  0  0
   18.7215   17.9865   23.3501 H   0  0  0  0  0  0  0  0  0  0  0  0
   20.9628   17.9008   21.6782 O   0  0  0  0  0  0  0  0  0  0  0  0
   20.9195   18.0118   22.6489 H   0  0  0  0  0  0  0  0  0  0  0  0
  1  2  1  0  0  0  0
  1  3  1  0  0  0  0
  1  4  1  0  0  0  0
  4  5  1  0  0  0  0
  4  6  1  0  0  0  0
  4  7  1  0  0  0  0
  7  8  1  0  0  0  0
  7  9  1  0  0  0  0
  7 10  1  0  0  0  0
 10 11  1  0  0  0  0
 10 12  1  0  0  0  0
 10 13  1  0  0  0  0
 13 14  1  0  0  0  0
 13 15  1  0  0  0  0
 15 16  1  0  0  0  0
 15 17  1  0  0  0  0
  1 18  1  0  0  0  0
 15 18  1  0  0  0  0
 18 19  1  0  0  0  0
 18 20  1  0  0  0  0
 13 21  1  0  0  0  0
 21 22  1  0  0  0  0
M  END
> <VConfSearch Rank>
519

> <Conf_Id>
99

> <Delta U+W>
-3.852

> <U+W>
2.572

> <U>
3.922

> <W>
-1.350

> <W(PB)>
-3.345

> <W(SA)>
1.995

> <Valence>
12.571

> <Coulomb>
-10.581

> <VdW>
1.932

> <VdW6>
-10.483

> <VdW12>
12.415

> <Bond>
0.268

> <Angle>
3.728

> <Pdih>
8.575

> <Idih>
0.000

> <Tether>
0.000

$$$$
VeraChem MOL file


 22 22  0  0  0  0  0  0  0  0999 V2000     
   19.5932   21.1724   22.9047 C   0  0  0  0  0  0  0  0  0  0  0  0
   19.7668   22.1954   23.2662 H   0  0  0  0  0  0  0  0  0  0  0  0
   18.5974   21.2006   22.4425 H   0  0  0  0  0  0  0  0  0  0  0  0
   19.5847   20.2246   24.1398 C   0  0  0  0  0  0  0  0  0  0  0  0
   19.7544   20.8374   25.0359 H   0  0  0  0  0  0  0  0  0  0  0  0
   18.5848   19.7921   24.2780 H   0  0  0  0  0  0  0  0  0  0  0  0
   20.6436   19.0926   24.1344 C   0  0  0  0  0  0  0  0  0  0  0  0
   20.6598   18.6287   25.1300 H   0  0  0  0  0  0  0  0  0  0  0  0
   21.6455   19.5233   24.0146 H   0  0  0  0  0  0  0  0  0  0  0  0
   20.4292   17.9642   23.0877 C   0  0  0  0  0  0  0  0  0  0  0  0
   21.3941   17.4715   22.9121 H   0  0  0  0  0  0  0  0  0  0  0  0
   19.7872   17.1937   23.5351 H   0  0  0  0  0  0  0  0  0  0  0  0
   19.8162   18.3439   21.7172 C   0  0  0  0  0  0  0  0  0  0  0  0
   19.9560   17.4782   21.0540 H   0  0  0  0  0  0  0  0  0  0  0  0
   20.4432   19.5653   21.0009 C   0  0  0  0  0  0  0  0  0  0  0  0
   21.4097   19.2618   20.5784 H   0  0  0  0  0  0  0  0  0  0  0  0
   19.8099   19.8023   20.1356 H   0  0  0  0  0  0  0  0  0  0  0  0
   20.6594   20.8669   21.8218 C   0  0  0  0  0  0  0  0  0  0  0  0
   21.6574   20.8560   22.2774 H   0  0  0  0  0  0  0  0  0  0  0  0
   20.6874   21.7084   21.1162 H   0  0  0  0  0  0  0  0  0  0  0  0
   18.4182   18.5411   21.8591 O   0  0  0  0  0  0  0  0  0  0  0  0
   18.3478   19.3155   22.4527 H   0  0  0  0  0  0  0  0  0  0  0  0
  1  2  1  0  0  0  0
  1  3  1  0  0  0  0
  1  4  1  0  0  0  0
  4  5  1  0  0  0  0
  4  6  1  0  0  0  0
  4  7  1  0  0  0  0
  7  8  1  0  0  0  0
  7  9  1  0  0  0  0
  7 10  1  0  0  0  0
 10 11  1  0  0  0  0
 10 12  1  0  0  0  0
 10 13  1  0  0  0  0
 13 14  1  0  0  0  0
 13 15  1  0  0  0  0
 15 16  1  0  0  0  0
 15 17  1  0  0  0  0
  1 18  1  0  0  0  0
 15 18  1  0  0  0  0
 18 19  1  0  0  0  0
 18 20  1  0  0  0  0
 13 21  1  0  0  0  0
 21 22  1  0  0  0  0
M  END
> <VConfSearch Rank>
520

> <Conf_Id>
98

> <Delta U+W>
0.930

> <U+W>
7.353

> <U>
8.455

> <W>
-1.102

> <W(PB)>
-3.101

> <W(SA)>
2.000

> <Valence>
15.601

> <Coulomb>
-10.573

> <VdW>
3.427

> <VdW6>
-11.360

> <VdW12>
14.787

> <Bond>
0.471

> <Angle>
5.445

> <Pdih>
9.685

> <Idih>
0.000

> <Tether>
0.000

$$$$
VeraChem MOL file


 22 22  0  0  0  0  0  0  0  0999 V2000     
   21.4415   19.8196   21.7387 C   0  0  0  0  0  0  0  0  0  0  0  0
   20.9612   20.7368   21.3744 H   0  0  0  0  0  0  0  0  0  0  0  0
   22.4457   19.8274   21.2935 H   0  0  0  0  0  0  0  0  0  0  0  0
   20.6761   18.5809   21.2075 C   0  0  0  0  0  0  0  0  0  0  0  0
   20.6931   18.6273   20.1101 H   0  0  0  0  0  0  0  0  0  0  0  0
   21.2243   17.6674   21.4751 H   0  0  0  0  0  0  0  0  0  0  0  0
   19.1970   18.4406   21.6626 C   0  0  0  0  0  0  0  0  0  0  0  0
   19.1156   17.6784   22.4483 H   0  0  0  0  0  0  0  0  0  0  0  0
   18.6159   18.0414   20.8202 H   0  0  0  0  0  0  0  0  0  0  0  0
   18.5309   19.7558   22.1469 C   0  0  0  0  0  0  0  0  0  0  0  0
   18.6710   20.5321   21.3845 H   0  0  0  0  0  0  0  0  0  0  0  0
   17.4450   19.5967   22.1906 H   0  0  0  0  0  0  0  0  0  0  0  0
   19.0167   20.2974   23.5233 C   0  0  0  0  0  0  0  0  0  0  0  0
   19.2004   21.3763   23.4172 H   0  0  0  0  0  0  0  0  0  0  0  0
   20.2997   19.6427   24.0939 C   0  0  0  0  0  0  0  0  0  0  0  0
   20.4681   20.0183   25.1115 H   0  0  0  0  0  0  0  0  0  0  0  0
   20.1429   18.5636   24.2105 H   0  0  0  0  0  0  0  0  0  0  0  0
   21.5920   19.8912   23.2765 C   0  0  0  0  0  0  0  0  0  0  0  0
   21.9910   20.8816   23.5349 H   0  0  0  0  0  0  0  0  0  0  0  0
   22.3523   19.1667   23.5983 H   0  0  0  0  0  0  0  0  0  0  0  0
   17.9782   20.1018   24.4765 O   0  0  0  0  0  0  0  0  0  0  0  0
   18.2864   20.5017   25.3163 H   0  0  0  0  0  0  0  0  0  0  0  0
  1  2  1  0  0  0  0
  1  3  1  0  0  0  0
  1  4  1  0  0  0  0
  4  5  1  0  0  0  0
  4  6  1  0  0  0  0
  4  7  1  0  0  0  0
  7  8  1  0  0  0  0
  7  9  1  0  0  0  0
  7 10  1  0  0  0  0
 10 11  1  0  0  0  0
 10 12  1  0  0  0  0
 10 13  1  0  0  0  0
 13 14  1  0  0  0  0
 13 15  1  0  0  0  0
 15 16  1  0  0  0  0
 15 17  1  0  0  0  0
  1 18  1  0  0  0  0
 15 18  1  0  0  0  0
 18 19  1  0  0  0  0
 18 20  1  0  0  0  0
 13 21  1  0  0  0  0
 21 22  1  0  0  0  0
M  END
> <VConfSearch Rank>
521

> <Conf_Id>
141

> <Delta U+W>
0.000

> <U+W>
6.423

> <U>
8.781

> <W>
-2.358

> <W(PB)>
-4.373

> <W(SA)>
2.015

> <Valence>
13.328

> <Coulomb>
-8.387

> <VdW>
3.840

> <VdW6>
-9.744

> <VdW12>
13.584

> <Bond>
0.436

> <Angle>
3.478

> <Pdih>
9.415

> <Idih>
0.000

> <Tether>
0.000

$$$$
VeraChem MOL file


 22 22  0  0  0  0  0  0  0  0999 V2000     
   18.8256   18.5748   21.8569 C   0  0  0  0  0  0  0  0  0  0  0  0
   19.4106   17.7052   22.1857 H   0  0  0  0  0  0  0  0  0  0  0  0
   17.9476   18.1704   21.3350 H   0  0  0  0  0  0  0  0  0  0  0  0
   19.6242   19.4271   20.8413 C   0  0  0  0  0  0  0  0  0  0  0  0
   19.7301   18.8538   19.9102 H   0  0  0  0  0  0  0  0  0  0  0  0
   19.0411   20.3200   20.5772 H   0  0  0  0  0  0  0  0  0  0  0  0
   21.0347   19.8567   21.3061 C   0  0  0  0  0  0  0  0  0  0  0  0
   21.4668   20.5067   20.5330 H   0  0  0  0  0  0  0  0  0  0  0  0
   21.6874   18.9743   21.3546 H   0  0  0  0  0  0  0  0  0  0  0  0
   21.0773   20.6047   22.6610 C   0  0  0  0  0  0  0  0  0  0  0  0
   22.0754   21.0509   22.7626 H   0  0  0  0  0  0  0  0  0  0  0  0
   20.3670   21.4416   22.6638 H   0  0  0  0  0  0  0  0  0  0  0  0
   20.8197   19.6720   23.8657 C   0  0  0  0  0  0  0  0  0  0  0  0
   21.2266   18.6792   23.6255 H   0  0  0  0  0  0  0  0  0  0  0  0
   19.3298   19.5072   24.2428 C   0  0  0  0  0  0  0  0  0  0  0  0
   19.2437   18.6087   24.8675 H   0  0  0  0  0  0  0  0  0  0  0  0
   19.0211   20.3469   24.8797 H   0  0  0  0  0  0  0  0  0  0  0  0
   18.3251   19.3950   23.0689 C   0  0  0  0  0  0  0  0  0  0  0  0
   17.4035   18.9371   23.4534 H   0  0  0  0  0  0  0  0  0  0  0  0
   18.0364   20.4009   22.7349 H   0  0  0  0  0  0  0  0  0  0  0  0
   21.5070   20.1872   24.9995 O   0  0  0  0  0  0  0  0  0  0  0  0
   22.4584   20.2122   24.7655 H   0  0  0  0  0  0  0  0  0  0  0  0
  1  2  1  0  0  0  0
  1  3  1  0  0  0  0
  1  4  1  0  0  0  0
  4  5  1  0  0  0  0
  4  6  1  0  0  0  0
  4  7  1  0  0  0  0
  7  8  1  0  0  0  0
  7  9  1  0  0  0  0
  7 10  1  0  0  0  0
 10 11  1  0  0  0  0
 10 12  1  0  0  0  0
 10 13  1  0  0  0  0
 13 14  1  0  0  0  0
 13 15  1  0  0  0  0
 15 16  1  0  0  0  0
 15 17  1  0  0  0  0
  1 18  1  0  0  0  0
 15 18  1  0  0  0  0
 18 19  1  0  0  0  0
 18 20  1  0  0  0  0
 13 21  1  0  0  0  0
 21 22  1  0  0  0  0
M  END
> <VConfSearch Rank>
522

> <Conf_Id>
144

> <Delta U+W>
-3.291

> <U+W>
3.132

> <U>
5.411

> <W>
-2.279

> <W(PB)>
-4.300

> <W(SA)>
2.021

> <Valence>
11.909

> <Coulomb>
-8.733

> <VdW>
2.236

> <VdW6>
-8.936

> <VdW12>
11.172

> <Bond>
0.223

> <Angle>
2.457

> <Pdih>
9.228

> <Idih>
0.000

> <Tether>
0.000

$$$$
VeraChem MOL file


 22 22  0  0  0  0  0  0  0  0999 V2000     
   18.8079   18.9120   23.7983 C   0  0  0  0  0  0  0  0  0  0  0  0
   18.1869   18.2483   24.4153 H   0  0  0  0  0  0  0  0  0  0  0  0
   18.5619   19.9359   24.1111 H   0  0  0  0  0  0  0  0  0  0  0  0
   18.4280   18.6821   22.3168 C   0  0  0  0  0  0  0  0  0  0  0  0
   18.9613   17.8008   21.9351 H   0  0  0  0  0  0  0  0  0  0  0  0
   17.3611   18.4263   22.2592 H   0  0  0  0  0  0  0  0  0  0  0  0
   18.6802   19.8880   21.3798 C   0  0  0  0  0  0  0  0  0  0  0  0
   17.8264   20.5762   21.4452 H   0  0  0  0  0  0  0  0  0  0  0  0
   18.6886   19.5210   20.3443 H   0  0  0  0  0  0  0  0  0  0  0  0
   19.9740   20.6991   21.6375 C   0  0  0  0  0  0  0  0  0  0  0  0
   20.1900   21.2831   20.7327 H   0  0  0  0  0  0  0  0  0  0  0  0
   19.7859   21.4357   22.4293 H   0  0  0  0  0  0  0  0  0  0  0  0
   21.2106   19.8515   22.0116 C   0  0  0  0  0  0  0  0  0  0  0  0
   21.1747   18.8918   21.4767 H   0  0  0  0  0  0  0  0  0  0  0  0
   21.3146   19.5941   23.5321 C   0  0  0  0  0  0  0  0  0  0  0  0
   22.3217   19.2184   23.7571 H   0  0  0  0  0  0  0  0  0  0  0  0
   21.2180   20.5450   24.0721 H   0  0  0  0  0  0  0  0  0  0  0  0
   20.2899   18.5829   24.0987 C   0  0  0  0  0  0  0  0  0  0  0  0
   20.5240   17.5777   23.7221 H   0  0  0  0  0  0  0  0  0  0  0  0
   20.4237   18.5327   25.1879 H   0  0  0  0  0  0  0  0  0  0  0  0
   22.3756   20.5587   21.6081 O   0  0  0  0  0  0  0  0  0  0  0  0
   22.3710   21.4042   22.1024 H   0  0  0  0  0  0  0  0  0  0  0  0
  1  2  1  0  0  0  0
  1  3  1  0  0  0  0
  1  4  1  0  0  0  0
  4  5  1  0  0  0  0
  4  6  1  0  0  0  0
  4  7  1  0  0  0  0
  7  8  1  0  0  0  0
  7  9  1  0  0  0  0
  7 10  1  0  0  0  0
 10 11  1  0  0  0  0
 10 12  1  0  0  0  0
 10 13  1  0  0  0  0
 13 14  1  0  0  0  0
 13 15  1  0  0  0  0
 15 16  1  0  0  0  0
 15 17  1  0  0  0  0
  1 18  1  0  0  0  0
 15 18  1  0  0  0  0
 18 19  1  0  0  0  0
 18 20  1  0  0  0  0
 13 21  1  0  0  0  0
 21 22  1  0  0  0  0
M  END
> <VConfSearch Rank>
523

> <Conf_Id>
76

> <Delta U+W>
-3.175

> <U+W>
3.248

> <U>
5.336

> <W>
-2.088

> <W(PB)>
-4.098

> <W(SA)>
2.010

> <Valence>
12.390

> <Coulomb>
-9.270

> <VdW>
2.216

> <VdW6>
-8.967

> <VdW12>
11.183

> <Bond>
0.218

> <Angle>
2.426

> <Pdih>
9.745

> <Idih>
0.000

> <Tether>
0.000

$$$$
VeraChem MOL file


 22 22  0  0  0  0  0  0  0  0999 V2000     
   20.9262   20.3991   24.1279 C   0  0  0  0  0  0  0  0  0  0  0  0
   21.2667   21.4421   24.1808 H   0  0  0  0  0  0  0  0  0  0  0  0
   21.1168   19.9724   25.1221 H   0  0  0  0  0  0  0  0  0  0  0  0
   21.7994   19.6571   23.0879 C   0  0  0  0  0  0  0  0  0  0  0  0
   22.0348   20.3350   22.2563 H   0  0  0  0  0  0  0  0  0  0  0  0
   22.7641   19.4243   23.5590 H   0  0  0  0  0  0  0  0  0  0  0  0
   21.1853   18.3521   22.5298 C   0  0  0  0  0  0  0  0  0  0  0  0
   20.6383   17.8084   23.3121 H   0  0  0  0  0  0  0  0  0  0  0  0
   22.0078   17.6936   22.2195 H   0  0  0  0  0  0  0  0  0  0  0  0
   20.2829   18.5946   21.2933 C   0  0  0  0  0  0  0  0  0  0  0  0
   20.8306   19.2003   20.5601 H   0  0  0  0  0  0  0  0  0  0  0  0
   20.0979   17.6311   20.8004 H   0  0  0  0  0  0  0  0  0  0  0  0
   18.9148   19.2603   21.5662 C   0  0  0  0  0  0  0  0  0  0  0  0
   18.4893   19.5232   20.5870 H   0  0  0  0  0  0  0  0  0  0  0  0
   18.9709   20.5628   22.4033 C   0  0  0  0  0  0  0  0  0  0  0  0
   19.6265   21.2931   21.9117 H   0  0  0  0  0  0  0  0  0  0  0  0
   17.9681   21.0088   22.3891 H   0  0  0  0  0  0  0  0  0  0  0  0
   19.3986   20.3776   23.8825 C   0  0  0  0  0  0  0  0  0  0  0  0
   18.9494   21.1798   24.4835 H   0  0  0  0  0  0  0  0  0  0  0  0
   18.9787   19.4452   24.2822 H   0  0  0  0  0  0  0  0  0  0  0  0
   18.0484   18.3160   22.1872 O   0  0  0  0  0  0  0  0  0  0  0  0
   17.2165   18.7911   22.3885 H   0  0  0  0  0  0  0  0  0  0  0  0
  1  2  1  0  0  0  0
  1  3  1  0  0  0  0
  1  4  1  0  0  0  0
  4  5  1  0  0  0  0
  4  6  1  0  0  0  0
  4  7  1  0  0  0  0
  7  8  1  0  0  0  0
  7  9  1  0  0  0  0
  7 10  1  0  0  0  0
 10 11  1  0  0  0  0
 10 12  1  0  0  0  0
 10 13  1  0  0  0  0
 13 14  1  0  0  0  0
 13 15  1  0  0  0  0
 15 16  1  0  0  0  0
 15 17  1  0  0  0  0
  1 18  1  0  0  0  0
 15 18  1  0  0  0  0
 18 19  1  0  0  0  0
 18 20  1  0  0  0  0
 13 21  1  0  0  0  0
 21 22  1  0  0  0  0
M  END
> <VConfSearch Rank>
524

> <Conf_Id>
95

> <Delta U+W>
-2.289

> <U+W>
4.134

> <U>
6.373

> <W>
-2.240

> <W(PB)>
-4.254

> <W(SA)>
2.015

> <Valence>
12.093

> <Coulomb>
-8.058

> <VdW>
2.339

> <VdW6>
-9.683

> <VdW12>
12.022

> <Bond>
0.268

> <Angle>
3.005

> <Pdih>
8.820

> <Idih>
0.000

> <Tether>
0.000

$$$$
VeraChem MOL file


 22 22  0  0  0  0  0  0  0  0999 V2000     
   20.8436   20.4562   24.2334 C   0  0  0  0  0  0  0  0  0  0  0  0
   20.3594   20.7452   25.1761 H   0  0  0  0  0  0  0  0  0  0  0  0
   21.9066   20.7048   24.3561 H   0  0  0  0  0  0  0  0  0  0  0  0
   20.2531   21.3273   23.0991 C   0  0  0  0  0  0  0  0  0  0  0  0
   19.1857   21.5024   23.2901 H   0  0  0  0  0  0  0  0  0  0  0  0
   20.7264   22.3174   23.1501 H   0  0  0  0  0  0  0  0  0  0  0  0
   20.4342   20.7572   21.6730 C   0  0  0  0  0  0  0  0  0  0  0  0
   21.4113   20.2666   21.5668 H   0  0  0  0  0  0  0  0  0  0  0  0
   20.4375   21.5993   20.9678 H   0  0  0  0  0  0  0  0  0  0  0  0
   19.2861   19.8011   21.2615 C   0  0  0  0  0  0  0  0  0  0  0  0
   18.3235   20.2897   21.4605 H   0  0  0  0  0  0  0  0  0  0  0  0
   19.3208   19.6588   20.1736 H   0  0  0  0  0  0  0  0  0  0  0  0
   19.2830   18.4096   21.9349 C   0  0  0  0  0  0  0  0  0  0  0  0
   18.3268   17.9331   21.6748 H   0  0  0  0  0  0  0  0  0  0  0  0
   19.3760   18.4270   23.4813 C   0  0  0  0  0  0  0  0  0  0  0  0
   18.5497   19.0157   23.8997 H   0  0  0  0  0  0  0  0  0  0  0  0
   19.2161   17.3977   23.8273 H   0  0  0  0  0  0  0  0  0  0  0  0
   20.7287   18.9234   24.0552 C   0  0  0  0  0  0  0  0  0  0  0  0
   20.8878   18.4569   25.0366 H   0  0  0  0  0  0  0  0  0  0  0  0
   21.5547   18.5651   23.4268 H   0  0  0  0  0  0  0  0  0  0  0  0
   20.3352   17.6190   21.3902 O   0  0  0  0  0  0  0  0  0  0  0  0
   20.2399   17.6560   20.4166 H   0  0  0  0  0  0  0  0  0  0  0  0
  1  2  1  0  0  0  0
  1  3  1  0  0  0  0
  1  4  1  0  0  0  0
  4  5  1  0  0  0  0
  4  6  1  0  0  0  0
  4  7  1  0  0  0  0
  7  8  1  0  0  0  0
  7  9  1  0  0  0  0
  7 10  1  0  0  0  0
 10 11  1  0  0  0  0
 10 12  1  0  0  0  0
 10 13  1  0  0  0  0
 13 14  1  0  0  0  0
 13 15  1  0  0  0  0
 15 16  1  0  0  0  0
 15 17  1  0  0  0  0
  1 18  1  0  0  0  0
 15 18  1  0  0  0  0
 18 19  1  0  0  0  0
 18 20  1  0  0  0  0
 13 21  1  0  0  0  0
 21 22  1  0  0  0  0
M  END
> <VConfSearch Rank>
525

> <Conf_Id>
41

> <Delta U+W>
-2.114

> <U+W>
4.310

> <U>
6.598

> <W>
-2.289

> <W(PB)>
-4.294

> <W(SA)>
2.005

> <Valence>
12.082

> <Coulomb>
-7.801

> <VdW>
2.317

> <VdW6>
-9.658

> <VdW12>
11.975

> <Bond>
0.267

> <Angle>
3.051

> <Pdih>
8.764

> <Idih>
0.000

> <Tether>
0.000

$$$$
VeraChem MOL file


 22 22  0  0  0  0  0  0  0  0999 V2000     
   18.9260   19.7959   21.5467 C   0  0  0  0  0  0  0  0  0  0  0  0
   18.0860   20.1573   20.9381 H   0  0  0  0  0  0  0  0  0  0  0  0
   19.5727   19.2217   20.8691 H   0  0  0  0  0  0  0  0  0  0  0  0
   18.3509   18.8859   22.6552 C   0  0  0  0  0  0  0  0  0  0  0  0
   17.7591   19.4898   23.3563 H   0  0  0  0  0  0  0  0  0  0  0  0
   17.6461   18.1785   22.1977 H   0  0  0  0  0  0  0  0  0  0  0  0
   19.4085   18.0769   23.4376 C   0  0  0  0  0  0  0  0  0  0  0  0
   19.8538   17.3218   22.7762 H   0  0  0  0  0  0  0  0  0  0  0  0
   18.8889   17.5107   24.2222 H   0  0  0  0  0  0  0  0  0  0  0  0
   20.5260   18.9235   24.1051 C   0  0  0  0  0  0  0  0  0  0  0  0
   20.0817   19.7276   24.7054 H   0  0  0  0  0  0  0  0  0  0  0  0
   21.0512   18.2763   24.8192 H   0  0  0  0  0  0  0  0  0  0  0  0
   21.5958   19.5106   23.1487 C   0  0  0  0  0  0  0  0  0  0  0  0
   22.4568   19.7911   23.7727 H   0  0  0  0  0  0  0  0  0  0  0  0
   21.1852   20.7931   22.3794 C   0  0  0  0  0  0  0  0  0  0  0  0
   21.5555   21.6593   22.9429 H   0  0  0  0  0  0  0  0  0  0  0  0
   21.7206   20.8224   21.4213 H   0  0  0  0  0  0  0  0  0  0  0  0
   19.6770   21.0221   22.1111 C   0  0  0  0  0  0  0  0  0  0  0  0
   19.1836   21.3704   23.0285 H   0  0  0  0  0  0  0  0  0  0  0  0
   19.5854   21.8501   21.3951 H   0  0  0  0  0  0  0  0  0  0  0  0
   22.0375   18.5185   22.2259 O   0  0  0  0  0  0  0  0  0  0  0  0
   22.7355   18.9322   21.6785 H   0  0  0  0  0  0  0  0  0  0  0  0
  1  2  1  0  0  0  0
  1  3  1  0  0  0  0
  1  4  1  0  0  0  0
  4  5  1  0  0  0  0
  4  6  1  0  0  0  0
  4  7  1  0  0  0  0
  7  8  1  0  0  0  0
  7  9  1  0  0  0  0
  7 10  1  0  0  0  0
 10 11  1  0  0  0  0
 10 12  1  0  0  0  0
 10 13  1  0  0  0  0
 13 14  1  0  0  0  0
 13 15  1  0  0  0  0
 15 16  1  0  0  0  0
 15 17  1  0  0  0  0
  1 18  1  0  0  0  0
 15 18  1  0  0  0  0
 18 19  1  0  0  0  0
 18 20  1  0  0  0  0
 13 21  1  0  0  0  0
 21 22  1  0  0  0  0
M  END
> <VConfSearch Rank>
526

> <Conf_Id>
104

> <Delta U+W>
-1.172

> <U+W>
5.252

> <U>
7.482

> <W>
-2.230

> <W(PB)>
-4.220

> <W(SA)>
1.990

> <Valence>
12.309

> <Coulomb>
-7.084

> <VdW>
2.258

> <VdW6>
-9.770

> <VdW12>
12.028

> <Bond>
0.284

> <Angle>
3.491

> <Pdih>
8.535

> <Idih>
0.000

> <Tether>
0.000

$$$$
VeraChem MOL file


 22 22  0  0  0  0  0  0  0  0999 V2000     
   18.8298   19.8701   21.6186 C   0  0  0  0  0  0  0  0  0  0  0  0
   19.5069   20.1301   20.7937 H   0  0  0  0  0  0  0  0  0  0  0  0
   17.8119   19.9907   21.2233 H   0  0  0  0  0  0  0  0  0  0  0  0
   18.9972   20.8519   22.8007 C   0  0  0  0  0  0  0  0  0  0  0  0
   18.4489   21.7755   22.5694 H   0  0  0  0  0  0  0  0  0  0  0  0
   18.4989   20.4406   23.6884 H   0  0  0  0  0  0  0  0  0  0  0  0
   20.4562   21.2434   23.1470 C   0  0  0  0  0  0  0  0  0  0  0  0
   20.4951   21.5400   24.2043 H   0  0  0  0  0  0  0  0  0  0  0  0
   20.7166   22.1484   22.5811 H   0  0  0  0  0  0  0  0  0  0  0  0
   21.5606   20.1868   22.8732 C   0  0  0  0  0  0  0  0  0  0  0  0
   21.8011   20.1883   21.8022 H   0  0  0  0  0  0  0  0  0  0  0  0
   22.4789   20.5187   23.3748 H   0  0  0  0  0  0  0  0  0  0  0  0
   21.2704   18.7339   23.3147 C   0  0  0  0  0  0  0  0  0  0  0  0
   22.2392   18.2255   23.4235 H   0  0  0  0  0  0  0  0  0  0  0  0
   20.4633   17.9374   22.2647 C   0  0  0  0  0  0  0  0  0  0  0  0
   21.0029   17.9681   21.3092 H   0  0  0  0  0  0  0  0  0  0  0  0
   20.4570   16.8819   22.5667 H   0  0  0  0  0  0  0  0  0  0  0  0
   19.0003   18.3882   22.0295 C   0  0  0  0  0  0  0  0  0  0  0  0
   18.5783   17.7590   21.2341 H   0  0  0  0  0  0  0  0  0  0  0  0
   18.3975   18.1776   22.9232 H   0  0  0  0  0  0  0  0  0  0  0  0
   20.5978   18.7174   24.5643 O   0  0  0  0  0  0  0  0  0  0  0  0
   19.7951   19.2541   24.4103 H   0  0  0  0  0  0  0  0  0  0  0  0
  1  2  1  0  0  0  0
  1  3  1  0  0  0  0
  1  4  1  0  0  0  0
  4  5  1  0  0  0  0
  4  6  1  0  0  0  0
  4  7  1  0  0  0  0
  7  8  1  0  0  0  0
  7  9  1  0  0  0  0
  7 10  1  0  0  0  0
 10 11  1  0  0  0  0
 10 12  1  0  0  0  0
 10 13  1  0  0  0  0
 13 14  1  0  0  0  0
 13 15  1  0  0  0  0
 15 16  1  0  0  0  0
 15 17  1  0  0  0  0
  1 18  1  0  0  0  0
 15 18  1  0  0  0  0
 18 19  1  0  0  0  0
 18 20  1  0  0  0  0
 13 21  1  0  0  0  0
 21 22  1  0  0  0  0
M  END
> <VConfSearch Rank>
527

> <Conf_Id>
99

> <Delta U+W>
-3.852

> <U+W>
2.572

> <U>
3.922

> <W>
-1.350

> <W(PB)>
-3.345

> <W(SA)>
1.995

> <Valence>
12.571

> <Coulomb>
-10.581

> <VdW>
1.932

> <VdW6>
-10.483

> <VdW12>
12.415

> <Bond>
0.268

> <Angle>
3.728

> <Pdih>
8.575

> <Idih>
0.000

> <Tether>
0.000

$$$$
VeraChem MOL file


 22 22  0  0  0  0  0  0  0  0999 V2000     
   20.3040   20.2444   21.1597 C   0  0  0  0  0  0  0  0  0  0  0  0
   20.4759   20.1457   20.0790 H   0  0  0  0  0  0  0  0  0  0  0  0
   20.2317   21.3258   21.3372 H   0  0  0  0  0  0  0  0  0  0  0  0
   21.5461   19.6619   21.8958 C   0  0  0  0  0  0  0  0  0  0  0  0
   22.2556   19.3112   21.1337 H   0  0  0  0  0  0  0  0  0  0  0  0
   22.0774   20.4601   22.4313 H   0  0  0  0  0  0  0  0  0  0  0  0
   21.2707   18.4823   22.8630 C   0  0  0  0  0  0  0  0  0  0  0  0
   22.2340   18.0455   23.1597 H   0  0  0  0  0  0  0  0  0  0  0  0
   20.7560   17.6758   22.3263 H   0  0  0  0  0  0  0  0  0  0  0  0
   20.4884   18.8325   24.1592 C   0  0  0  0  0  0  0  0  0  0  0  0
   20.0260   17.9126   24.5398 H   0  0  0  0  0  0  0  0  0  0  0  0
   21.2107   19.1342   24.9294 H   0  0  0  0  0  0  0  0  0  0  0  0
   19.4008   19.9324   24.0833 C   0  0  0  0  0  0  0  0  0  0  0  0
   18.8205   19.8726   25.0152 H   0  0  0  0  0  0  0  0  0  0  0  0
   18.3901   19.8170   22.9157 C   0  0  0  0  0  0  0  0  0  0  0  0
   17.6796   19.0137   23.1495 H   0  0  0  0  0  0  0  0  0  0  0  0
   17.7924   20.7382   22.9034 H   0  0  0  0  0  0  0  0  0  0  0  0
   18.9453   19.5731   21.4850 C   0  0  0  0  0  0  0  0  0  0  0  0
   19.0090   18.4951   21.2913 H   0  0  0  0  0  0  0  0  0  0  0  0
   18.1978   19.9386   20.7677 H   0  0  0  0  0  0  0  0  0  0  0  0
   20.0171   21.2101   24.0550 O   0  0  0  0  0  0  0  0  0  0  0  0
   20.5168   21.2130   23.2140 H   0  0  0  0  0  0  0  0  0  0  0  0
  1  2  1  0  0  0  0
  1  3  1  0  0  0  0
  1  4  1  0  0  0  0
  4  5  1  0  0  0  0
  4  6  1  0  0  0  0
  4  7  1  0  0  0  0
  7  8  1  0  0  0  0
  7  9  1  0  0  0  0
  7 10  1  0  0  0  0
 10 11  1  0  0  0  0
 10 12  1  0  0  0  0
 10 13  1  0  0  0  0
 13 14  1  0  0  0  0
 13 15  1  0  0  0  0
 15 16  1  0  0  0  0
 15 17  1  0  0  0  0
  1 18  1  0  0  0  0
 15 18  1  0  0  0  0
 18 19  1  0  0  0  0
 18 20  1  0  0  0  0
 13 21  1  0  0  0  0
 21 22  1  0  0  0  0
M  END
> <VConfSearch Rank>
528

> <Conf_Id>
98

> <Delta U+W>
0.930

> <U+W>
7.353

> <U>
8.455

> <W>
-1.102

> <W(PB)>
-3.101

> <W(SA)>
2.000

> <Valence>
15.601

> <Coulomb>
-10.573

> <VdW>
3.427

> <VdW6>
-11.360

> <VdW12>
14.787

> <Bond>
0.471

> <Angle>
5.445

> <Pdih>
9.685

> <Idih>
0.000

> <Tether>
0.000

$$$$
VeraChem MOL file


 22 22  0  0  0  0  0  0  0  0999 V2000     
   19.4698   21.0491   23.2553 C   0  0  0  0  0  0  0  0  0  0  0  0
   18.7218   21.0391   22.4520 H   0  0  0  0  0  0  0  0  0  0  0  0
   19.2576   21.9603   23.8310 H   0  0  0  0  0  0  0  0  0  0  0  0
   20.8903   21.1694   22.6472 C   0  0  0  0  0  0  0  0  0  0  0  0
   20.9229   22.1003   22.0648 H   0  0  0  0  0  0  0  0  0  0  0  0
   21.6257   21.2968   23.4531 H   0  0  0  0  0  0  0  0  0  0  0  0
   21.3423   20.0048   21.7229 C   0  0  0  0  0  0  0  0  0  0  0  0
   22.0415   19.3493   22.2580 H   0  0  0  0  0  0  0  0  0  0  0  0
   21.9291   20.4306   20.8977 H   0  0  0  0  0  0  0  0  0  0  0  0
   20.1898   19.1543   21.1261 C   0  0  0  0  0  0  0  0  0  0  0  0
   19.4612   19.8206   20.6477 H   0  0  0  0  0  0  0  0  0  0  0  0
   20.5976   18.5478   20.3062 H   0  0  0  0  0  0  0  0  0  0  0  0
   19.4479   18.2182   22.1247 C   0  0  0  0  0  0  0  0  0  0  0  0
   18.3671   18.3348   21.9592 H   0  0  0  0  0  0  0  0  0  0  0  0
   19.7361   18.4659   23.6266 C   0  0  0  0  0  0  0  0  0  0  0  0
   19.2568   17.6735   24.2160 H   0  0  0  0  0  0  0  0  0  0  0  0
   20.8099   18.3548   23.8196 H   0  0  0  0  0  0  0  0  0  0  0  0
   19.2504   19.8288   24.1802 C   0  0  0  0  0  0  0  0  0  0  0  0
   18.1774   19.7591   24.4050 H   0  0  0  0  0  0  0  0  0  0  0  0
   19.7485   20.0115   25.1420 H   0  0  0  0  0  0  0  0  0  0  0  0
   19.8122   16.8730   21.8369 O   0  0  0  0  0  0  0  0  0  0  0  0
   19.2894   16.3036   22.4390 H   0  0  0  0  0  0  0  0  0  0  0  0
  1  2  1  0  0  0  0
  1  3  1  0  0  0  0
  1  4  1  0  0  0  0
  4  5  1  0  0  0  0
  4  6  1  0  0  0  0
  4  7  1  0  0  0  0
  7  8  1  0  0  0  0
  7  9  1  0  0  0  0
  7 10  1  0  0  0  0
 10 11  1  0  0  0  0
 10 12  1  0  0  0  0
 10 13  1  0  0  0  0
 13 14  1  0  0  0  0
 13 15  1  0  0  0  0
 15 16  1  0  0  0  0
 15 17  1  0  0  0  0
  1 18  1  0  0  0  0
 15 18  1  0  0  0  0
 18 19  1  0  0  0  0
 18 20  1  0  0  0  0
 13 21  1  0  0  0  0
 21 22  1  0  0  0  0
M  END
> <VConfSearch Rank>
529

> <Conf_Id>
141

> <Delta U+W>
0.000

> <U+W>
6.423

> <U>
8.781

> <W>
-2.358

> <W(PB)>
-4.373

> <W(SA)>
2.015

> <Valence>
13.328

> <Coulomb>
-8.387

> <VdW>
3.840

> <VdW6>
-9.744

> <VdW12>
13.584

> <Bond>
0.436

> <Angle>
3.478

> <Pdih>
9.415

> <Idih>
0.000

> <Tether>
0.000

$$$$
VeraChem MOL file


 22 22  0  0  0  0  0  0  0  0999 V2000     
   20.3085   20.6082   24.0582 C   0  0  0  0  0  0  0  0  0  0  0  0
   19.5914   21.3443   23.6703 H   0  0  0  0  0  0  0  0  0  0  0  0
   20.6472   20.9964   25.0284 H   0  0  0  0  0  0  0  0  0  0  0  0
   21.5472   20.5030   23.1361 C   0  0  0  0  0  0  0  0  0  0  0  0
   22.1163   21.4401   23.2064 H   0  0  0  0  0  0  0  0  0  0  0  0
   22.2168   19.7183   23.5138 H   0  0  0  0  0  0  0  0  0  0  0  0
   21.2383   20.2374   21.6447 C   0  0  0  0  0  0  0  0  0  0  0  0
   22.1924   20.1171   21.1135 H   0  0  0  0  0  0  0  0  0  0  0  0
   20.7616   21.1251   21.2070 H   0  0  0  0  0  0  0  0  0  0  0  0
   20.3598   18.9923   21.3704 C   0  0  0  0  0  0  0  0  0  0  0  0
   20.4075   18.7830   20.2937 H   0  0  0  0  0  0  0  0  0  0  0  0
   20.7738   18.1081   21.8721 H   0  0  0  0  0  0  0  0  0  0  0  0
   18.8836   19.2030   21.7755 C   0  0  0  0  0  0  0  0  0  0  0  0
   18.6303   20.2608   21.6155 H   0  0  0  0  0  0  0  0  0  0  0  0
   18.5636   18.8446   23.2447 C   0  0  0  0  0  0  0  0  0  0  0  0
   17.6102   19.3236   23.5024 H   0  0  0  0  0  0  0  0  0  0  0  0
   18.3884   17.7635   23.3252 H   0  0  0  0  0  0  0  0  0  0  0  0
   19.6227   19.2436   24.3027 C   0  0  0  0  0  0  0  0  0  0  0  0
   19.1310   19.2624   25.2848 H   0  0  0  0  0  0  0  0  0  0  0  0
   20.3872   18.4579   24.3717 H   0  0  0  0  0  0  0  0  0  0  0  0
   18.0594   18.4023   20.9371 O   0  0  0  0  0  0  0  0  0  0  0  0
   18.2218   18.6975   20.0167 H   0  0  0  0  0  0  0  0  0  0  0  0
  1  2  1  0  0  0  0
  1  3  1  0  0  0  0
  1  4  1  0  0  0  0
  4  5  1  0  0  0  0
  4  6  1  0  0  0  0
  4  7  1  0  0  0  0
  7  8  1  0  0  0  0
  7  9  1  0  0  0  0
  7 10  1  0  0  0  0
 10 11  1  0  0  0  0
 10 12  1  0  0  0  0
 10 13  1  0  0  0  0
 13 14  1  0  0  0  0
 13 15  1  0  0  0  0
 15 16  1  0  0  0  0
 15 17  1  0  0  0  0
  1 18  1  0  0  0  0
 15 18  1  0  0  0  0
 18 19  1  0  0  0  0
 18 20  1  0  0  0  0
 13 21  1  0  0  0  0
 21 22  1  0  0  0  0
M  END
> <VConfSearch Rank>
530

> <Conf_Id>
144

> <Delta U+W>
-3.291

> <U+W>
3.132

> <U>
5.411

> <W>
-2.279

> <W(PB)>
-4.300

> <W(SA)>
2.021

> <Valence>
11.909

> <Coulomb>
-8.733

> <VdW>
2.236

> <VdW6>
-8.936

> <VdW12>
11.172

> <Bond>
0.223

> <Angle>
2.457

> <Pdih>
9.228

> <Idih>
0.000

> <Tether>
0.000

$$$$
VeraChem MOL file


 22 22  0  0  0  0  0  0  0  0999 V2000     
   19.4749   20.9265   23.6023 C   0  0  0  0  0  0  0  0  0  0  0  0
   19.4717   21.8466   24.2025 H   0  0  0  0  0  0  0  0  0  0  0  0
   18.4237   20.6224   23.5066 H   0  0  0  0  0  0  0  0  0  0  0  0
   20.2899   19.8584   24.3684 C   0  0  0  0  0  0  0  0  0  0  0  0
   21.3610   20.0079   24.1754 H   0  0  0  0  0  0  0  0  0  0  0  0
   20.1616   20.0200   25.4475 H   0  0  0  0  0  0  0  0  0  0  0  0
   19.9059   18.3916   24.0572 C   0  0  0  0  0  0  0  0  0  0  0  0
   19.0416   18.1098   24.6742 H   0  0  0  0  0  0  0  0  0  0  0  0
   20.7306   17.7446   24.3862 H   0  0  0  0  0  0  0  0  0  0  0  0
   19.5699   18.0682   22.5805 C   0  0  0  0  0  0  0  0  0  0  0  0
   19.6474   16.9805   22.4488 H   0  0  0  0  0  0  0  0  0  0  0  0
   18.5184   18.3172   22.3872 H   0  0  0  0  0  0  0  0  0  0  0  0
   20.4628   18.7786   21.5386 C   0  0  0  0  0  0  0  0  0  0  0  0
   21.4827   18.8807   21.9361 H   0  0  0  0  0  0  0  0  0  0  0  0
   19.9190   20.1702   21.1425 C   0  0  0  0  0  0  0  0  0  0  0  0
   20.4392   20.5059   20.2354 H   0  0  0  0  0  0  0  0  0  0  0  0
   18.8589   20.0853   20.8704 H   0  0  0  0  0  0  0  0  0  0  0  0
   20.0796   21.2692   22.2196 C   0  0  0  0  0  0  0  0  0  0  0  0
   21.1449   21.5107   22.3371 H   0  0  0  0  0  0  0  0  0  0  0  0
   19.6042   22.1867   21.8471 H   0  0  0  0  0  0  0  0  0  0  0  0
   20.5054   17.9769   20.3658 O   0  0  0  0  0  0  0  0  0  0  0  0
   19.5829   17.9081   20.0441 H   0  0  0  0  0  0  0  0  0  0  0  0
  1  2  1  0  0  0  0
  1  3  1  0  0  0  0
  1  4  1  0  0  0  0
  4  5  1  0  0  0  0
  4  6  1  0  0  0  0
  4  7  1  0  0  0  0
  7  8  1  0  0  0  0
  7  9  1  0  0  0  0
  7 10  1  0  0  0  0
 10 11  1  0  0  0  0
 10 12  1  0  0  0  0
 10 13  1  0  0  0  0
 13 14  1  0  0  0  0
 13 15  1  0  0  0  0
 15 16  1  0  0  0  0
 15 17  1  0  0  0  0
  1 18  1  0  0  0  0
 15 18  1  0  0  0  0
 18 19  1  0  0  0  0
 18 20  1  0  0  0  0
 13 21  1  0  0  0  0
 21 22  1  0  0  0  0
M  END
> <VConfSearch Rank>
531

> <Conf_Id>
76

> <Delta U+W>
-3.175

> <U+W>
3.248

> <U>
5.336

> <W>
-2.088

> <W(PB)>
-4.098

> <W(SA)>
2.010

> <Valence>
12.390

> <Coulomb>
-9.270

> <VdW>
2.216

> <VdW6>
-8.967

> <VdW12>
11.183

> <Bond>
0.218

> <Angle>
2.426

> <Pdih>
9.745

> <Idih>
0.000

> <Tether>
0.000

$$$$
VeraChem MOL file


 22 22  0  0  0  0  0  0  0  0999 V2000     
   21.6751   20.3577   23.2325 C   0  0  0  0  0  0  0  0  0  0  0  0
   22.6688   19.8913   23.2745 H   0  0  0  0  0  0  0  0  0  0  0  0
   21.8296   21.4128   23.4966 H   0  0  0  0  0  0  0  0  0  0  0  0
   20.7839   19.6962   24.3109 C   0  0  0  0  0  0  0  0  0  0  0  0
   21.0272   18.6275   24.3824 H   0  0  0  0  0  0  0  0  0  0  0  0
   21.0554   20.1249   25.2852 H   0  0  0  0  0  0  0  0  0  0  0  0
   19.2619   19.8640   24.0949 C   0  0  0  0  0  0  0  0  0  0  0  0
   19.0291   20.8579   23.6889 H   0  0  0  0  0  0  0  0  0  0  0  0
   18.7705   19.8129   25.0759 H   0  0  0  0  0  0  0  0  0  0  0  0
   18.6556   18.7493   23.2050 C   0  0  0  0  0  0  0  0  0  0  0  0
   18.9641   17.7701   23.5930 H   0  0  0  0  0  0  0  0  0  0  0  0
   17.5627   18.7756   23.3065 H   0  0  0  0  0  0  0  0  0  0  0  0
   18.9957   18.8172   21.6987 C   0  0  0  0  0  0  0  0  0  0  0  0
   18.6496   17.8736   21.2527 H   0  0  0  0  0  0  0  0  0  0  0  0
   20.5036   18.9512   21.3688 C   0  0  0  0  0  0  0  0  0  0  0  0
   21.0583   18.1174   21.8181 H   0  0  0  0  0  0  0  0  0  0  0  0
   20.6169   18.8313   20.2836 H   0  0  0  0  0  0  0  0  0  0  0  0
   21.1504   20.3001   21.7780 C   0  0  0  0  0  0  0  0  0  0  0  0
   21.9952   20.5051   21.1066 H   0  0  0  0  0  0  0  0  0  0  0  0
   20.4422   21.1228   21.6135 H   0  0  0  0  0  0  0  0  0  0  0  0
   18.2668   19.8843   21.1002 O   0  0  0  0  0  0  0  0  0  0  0  0
   18.5496   19.9244   20.1638 H   0  0  0  0  0  0  0  0  0  0  0  0
  1  2  1  0  0  0  0
  1  3  1  0  0  0  0
  1  4  1  0  0  0  0
  4  5  1  0  0  0  0
  4  6  1  0  0  0  0
  4  7  1  0  0  0  0
  7  8  1  0  0  0  0
  7  9  1  0  0  0  0
  7 10  1  0  0  0  0
 10 11  1  0  0  0  0
 10 12  1  0  0  0  0
 10 13  1  0  0  0  0
 13 14  1  0  0  0  0
 13 15  1  0  0  0  0
 15 16  1  0  0  0  0
 15 17  1  0  0  0  0
  1 18  1  0  0  0  0
 15 18  1  0  0  0  0
 18 19  1  0  0  0  0
 18 20  1  0  0  0  0
 13 21  1  0  0  0  0
 21 22  1  0  0  0  0
M  END
> <VConfSearch Rank>
532

> <Conf_Id>
95

> <Delta U+W>
-2.289

> <U+W>
4.134

> <U>
6.373

> <W>
-2.240

> <W(PB)>
-4.254

> <W(SA)>
2.015

> <Valence>
12.093

> <Coulomb>
-8.058

> <VdW>
2.339

> <VdW6>
-9.683

> <VdW12>
12.022

> <Bond>
0.268

> <Angle>
3.005

> <Pdih>
8.820

> <Idih>
0.000

> <Tether>
0.000

$$$$
VeraChem MOL file


 22 22  0  0  0  0  0  0  0  0999 V2000     
   21.3389   19.1372   21.3888 C   0  0  0  0  0  0  0  0  0  0  0  0
   21.2858   18.3134   20.6640 H   0  0  0  0  0  0  0  0  0  0  0  0
   22.2825   19.6588   21.1784 H   0  0  0  0  0  0  0  0  0  0  0  0
   21.4091   18.5281   22.8095 C   0  0  0  0  0  0  0  0  0  0  0  0
   20.7866   17.6241   22.8512 H   0  0  0  0  0  0  0  0  0  0  0  0
   22.4381   18.1838   22.9806 H   0  0  0  0  0  0  0  0  0  0  0  0
   21.0033   19.4858   23.9540 C   0  0  0  0  0  0  0  0  0  0  0  0
   21.3510   20.5083   23.7530 H   0  0  0  0  0  0  0  0  0  0  0  0
   21.5198   19.1621   24.8677 H   0  0  0  0  0  0  0  0  0  0  0  0
   19.4804   19.4642   24.2395 C   0  0  0  0  0  0  0  0  0  0  0  0
   19.1507   18.4230   24.3502 H   0  0  0  0  0  0  0  0  0  0  0  0
   19.2997   19.9320   25.2159 H   0  0  0  0  0  0  0  0  0  0  0  0
   18.5802   20.1592   23.1923 C   0  0  0  0  0  0  0  0  0  0  0  0
   17.5414   19.9044   23.4474 H   0  0  0  0  0  0  0  0  0  0  0  0
   18.8106   19.7126   21.7268 C   0  0  0  0  0  0  0  0  0  0  0  0
   18.6693   18.6278   21.6391 H   0  0  0  0  0  0  0  0  0  0  0  0
   18.0172   20.1683   21.1204 H   0  0  0  0  0  0  0  0  0  0  0  0
   20.1773   20.1233   21.1193 C   0  0  0  0  0  0  0  0  0  0  0  0
   20.0641   20.2219   20.0313 H   0  0  0  0  0  0  0  0  0  0  0  0
   20.4574   21.1243   21.4732 H   0  0  0  0  0  0  0  0  0  0  0  0
   18.7306   21.5713   23.3031 O   0  0  0  0  0  0  0  0  0  0  0  0
   18.5925   21.7959   24.2458 H   0  0  0  0  0  0  0  0  0  0  0  0
  1  2  1  0  0  0  0
  1  3  1  0  0  0  0
  1  4  1  0  0  0  0
  4  5  1  0  0  0  0
  4  6  1  0  0  0  0
  4  7  1  0  0  0  0
  7  8  1  0  0  0  0
  7  9  1  0  0  0  0
  7 10  1  0  0  0  0
 10 11  1  0  0  0  0
 10 12  1  0  0  0  0
 10 13  1  0  0  0  0
 13 14  1  0  0  0  0
 13 15  1  0  0  0  0
 15 16  1  0  0  0  0
 15 17  1  0  0  0  0
  1 18  1  0  0  0  0
 15 18  1  0  0  0  0
 18 19  1  0  0  0  0
 18 20  1  0  0  0  0
 13 21  1  0  0  0  0
 21 22  1  0  0  0  0
M  END
> <VConfSearch Rank>
533

> <Conf_Id>
41

> <Delta U+W>
-2.114

> <U+W>
4.310

> <U>
6.598

> <W>
-2.289

> <W(PB)>
-4.294

> <W(SA)>
2.005

> <Valence>
12.082

> <Coulomb>
-7.801

> <VdW>
2.317

> <VdW6>
-9.658

> <VdW12>
11.975

> <Bond>
0.267

> <Angle>
3.051

> <Pdih>
8.764

> <Idih>
0.000

> <Tether>
0.000

$$$$
VeraChem MOL file


 22 22  0  0  0  0  0  0  0  0999 V2000     
   19.0115   18.3987   23.2851 C   0  0  0  0  0  0  0  0  0  0  0  0
   18.1330   17.8453   23.6435 H   0  0  0  0  0  0  0  0  0  0  0  0
   19.7415   17.6431   22.9638 H   0  0  0  0  0  0  0  0  0  0  0  0
   19.5653   19.2255   24.4671 C   0  0  0  0  0  0  0  0  0  0  0  0
   18.8480   20.0141   24.7320 H   0  0  0  0  0  0  0  0  0  0  0  0
   19.6355   18.5739   25.3486 H   0  0  0  0  0  0  0  0  0  0  0  0
   20.9540   19.8542   24.2189 C   0  0  0  0  0  0  0  0  0  0  0  0
   21.7103   19.0599   24.1646 H   0  0  0  0  0  0  0  0  0  0  0  0
   21.2177   20.4514   25.1021 H   0  0  0  0  0  0  0  0  0  0  0  0
   21.0509   20.7663   22.9660 C   0  0  0  0  0  0  0  0  0  0  0  0
   20.2468   21.5130   22.9805 H   0  0  0  0  0  0  0  0  0  0  0  0
   21.9858   21.3363   23.0417 H   0  0  0  0  0  0  0  0  0  0  0  0
   21.0691   20.0392   21.5967 C   0  0  0  0  0  0  0  0  0  0  0  0
   21.4551   20.7605   20.8618 H   0  0  0  0  0  0  0  0  0  0  0  0
   19.6911   19.5725   21.0598 C   0  0  0  0  0  0  0  0  0  0  0  0
   19.3141   20.3453   20.3773 H   0  0  0  0  0  0  0  0  0  0  0  0
   19.8338   18.6811   20.4349 H   0  0  0  0  0  0  0  0  0  0  0  0
   18.5754   19.2793   22.0934 C   0  0  0  0  0  0  0  0  0  0  0  0
   18.1525   20.2230   22.4636 H   0  0  0  0  0  0  0  0  0  0  0  0
   17.7537   18.7754   21.5665 H   0  0  0  0  0  0  0  0  0  0  0  0
   21.9696   18.9351   21.6307 O   0  0  0  0  0  0  0  0  0  0  0  0
   21.9693   18.5424   20.7342 H   0  0  0  0  0  0  0  0  0  0  0  0
  1  2  1  0  0  0  0
  1  3  1  0  0  0  0
  1  4  1  0  0  0  0
  4  5  1  0  0  0  0
  4  6  1  0  0  0  0
  4  7  1  0  0  0  0
  7  8  1  0  0  0  0
  7  9  1  0  0  0  0
  7 10  1  0  0  0  0
 10 11  1  0  0  0  0
 10 12  1  0  0  0  0
 10 13  1  0  0  0  0
 13 14  1  0  0  0  0
 13 15  1  0  0  0  0
 15 16  1  0  0  0  0
 15 17  1  0  0  0  0
  1 18  1  0  0  0  0
 15 18  1  0  0  0  0
 18 19  1  0  0  0  0
 18 20  1  0  0  0  0
 13 21  1  0  0  0  0
 21 22  1  0  0  0  0
M  END
> <VConfSearch Rank>
534

> <Conf_Id>
104

> <Delta U+W>
-1.172

> <U+W>
5.252

> <U>
7.482

> <W>
-2.230

> <W(PB)>
-4.220

> <W(SA)>
1.990

> <Valence>
12.309

> <Coulomb>
-7.084

> <VdW>
2.258

> <VdW6>
-9.770

> <VdW12>
12.028

> <Bond>
0.284

> <Angle>
3.491

> <Pdih>
8.535

> <Idih>
0.000

> <Tether>
0.000

$$$$
VeraChem MOL file


 22 22  0  0  0  0  0  0  0  0999 V2000     
   20.6956   20.0200   21.2130 C   0  0  0  0  0  0  0  0  0  0  0  0
   21.6840   20.2436   21.6367 H   0  0  0  0  0  0  0  0  0  0  0  0
   20.7678   20.2486   20.1409 H   0  0  0  0  0  0  0  0  0  0  0  0
   19.6130   20.9408   21.8209 C   0  0  0  0  0  0  0  0  0  0  0  0
   19.6654   21.9189   21.3233 H   0  0  0  0  0  0  0  0  0  0  0  0
   18.6189   20.5477   21.5706 H   0  0  0  0  0  0  0  0  0  0  0  0
   19.7172   21.1822   23.3482 C   0  0  0  0  0  0  0  0  0  0  0  0
   18.7185   21.4374   23.7288 H   0  0  0  0  0  0  0  0  0  0  0  0
   20.3307   22.0777   23.5173 H   0  0  0  0  0  0  0  0  0  0  0  0
   20.3137   20.0369   24.2106 C   0  0  0  0  0  0  0  0  0  0  0  0
   21.4076   20.0527   24.1209 H   0  0  0  0  0  0  0  0  0  0  0  0
   20.1082   20.2643   25.2647 H   0  0  0  0  0  0  0  0  0  0  0  0
   19.8126   18.6033   23.9218 C   0  0  0  0  0  0  0  0  0  0  0  0
   20.0010   18.0032   24.8236 H   0  0  0  0  0  0  0  0  0  0  0  0
   20.5769   17.9221   22.7642 C   0  0  0  0  0  0  0  0  0  0  0  0
   21.6498   17.9349   22.9957 H   0  0  0  0  0  0  0  0  0  0  0  0
   20.2918   16.8621   22.7430 H   0  0  0  0  0  0  0  0  0  0  0  0
   20.3615   18.5154   21.3498 C   0  0  0  0  0  0  0  0  0  0  0  0
   20.9973   17.9560   20.6501 H   0  0  0  0  0  0  0  0  0  0  0  0
   19.3295   18.3315   21.0220 H   0  0  0  0  0  0  0  0  0  0  0  0
   18.4191   18.6069   23.6528 O   0  0  0  0  0  0  0  0  0  0  0  0
   18.3234   19.2213   22.8981 H   0  0  0  0  0  0  0  0  0  0  0  0
  1  2  1  0  0  0  0
  1  3  1  0  0  0  0
  1  4  1  0  0  0  0
  4  5  1  0  0  0  0
  4  6  1  0  0  0  0
  4  7  1  0  0  0  0
  7  8  1  0  0  0  0
  7  9  1  0  0  0  0
  7 10  1  0  0  0  0
 10 11  1  0  0  0  0
 10 12  1  0  0  0  0
 10 13  1  0  0  0  0
 13 14  1  0  0  0  0
 13 15  1  0  0  0  0
 15 16  1  0  0  0  0
 15 17  1  0  0  0  0
  1 18  1  0  0  0  0
 15 18  1  0  0  0  0
 18 19  1  0  0  0  0
 18 20  1  0  0  0  0
 13 21  1  0  0  0  0
 21 22  1  0  0  0  0
M  END
> <VConfSearch Rank>
535

> <Conf_Id>
99

> <Delta U+W>
-3.852

> <U+W>
2.572

> <U>
3.922

> <W>
-1.350

> <W(PB)>
-3.345

> <W(SA)>
1.995

> <Valence>
12.571

> <Coulomb>
-10.581

> <VdW>
1.932

> <VdW6>
-10.483

> <VdW12>
12.415

> <Bond>
0.268

> <Angle>
3.728

> <Pdih>
8.575

> <Idih>
0.000

> <Tether>
0.000

$$$$
VeraChem MOL file


 22 22  0  0  0  0  0  0  0  0999 V2000     
   18.9815   18.9838   21.5753 C   0  0  0  0  0  0  0  0  0  0  0  0
   18.5854   18.1701   20.9522 H   0  0  0  0  0  0  0  0  0  0  0  0
   18.3076   19.8320   21.3950 H   0  0  0  0  0  0  0  0  0  0  0  0
   20.4144   19.3197   21.0677 C   0  0  0  0  0  0  0  0  0  0  0  0
   20.6385   18.6514   20.2248 H   0  0  0  0  0  0  0  0  0  0  0  0
   20.4372   20.3312   20.6408 H   0  0  0  0  0  0  0  0  0  0  0  0
   21.5553   19.1689   22.1061 C   0  0  0  0  0  0  0  0  0  0  0  0
   22.5160   19.2428   21.5785 H   0  0  0  0  0  0  0  0  0  0  0  0
   21.5464   18.1534   22.5212 H   0  0  0  0  0  0  0  0  0  0  0  0
   21.5665   20.2078   23.2617 C   0  0  0  0  0  0  0  0  0  0  0  0
   22.1322   19.7819   24.1003 H   0  0  0  0  0  0  0  0  0  0  0  0
   22.1452   21.0825   22.9360 H   0  0  0  0  0  0  0  0  0  0  0  0
   20.2074   20.7211   23.7978 C   0  0  0  0  0  0  0  0  0  0  0  0
   20.4151   21.2540   24.7367 H   0  0  0  0  0  0  0  0  0  0  0  0
   19.1455   19.6407   24.1192 C   0  0  0  0  0  0  0  0  0  0  0  0
   19.4249   19.1479   25.0593 H   0  0  0  0  0  0  0  0  0  0  0  0
   18.2009   20.1586   24.3327 H   0  0  0  0  0  0  0  0  0  0  0  0
   18.8724   18.5402   23.0566 C   0  0  0  0  0  0  0  0  0  0  0  0
   19.5311   17.6812   23.2354 H   0  0  0  0  0  0  0  0  0  0  0  0
   17.8594   18.1515   23.2281 H   0  0  0  0  0  0  0  0  0  0  0  0
   19.6644   21.6673   22.8905 O   0  0  0  0  0  0  0  0  0  0  0  0
   19.4984   21.1478   22.0784 H   0  0  0  0  0  0  0  0  0  0  0  0
  1  2  1  0  0  0  0
  1  3  1  0  0  0  0
  1  4  1  0  0  0  0
  4  5  1  0  0  0  0
  4  6  1  0  0  0  0
  4  7  1  0  0  0  0
  7  8  1  0  0  0  0
  7  9  1  0  0  0  0
  7 10  1  0  0  0  0
 10 11  1  0  0  0  0
 10 12  1  0  0  0  0
 10 13  1  0  0  0  0
 13 14  1  0  0  0  0
 13 15  1  0  0  0  0
 15 16  1  0  0  0  0
 15 17  1  0  0  0  0
  1 18  1  0  0  0  0
 15 18  1  0  0  0  0
 18 19  1  0  0  0  0
 18 20  1  0  0  0  0
 13 21  1  0  0  0  0
 21 22  1  0  0  0  0
M  END
> <VConfSearch Rank>
536

> <Conf_Id>
98

> <Delta U+W>
0.930

> <U+W>
7.353

> <U>
8.455

> <W>
-1.102

> <W(PB)>
-3.101

> <W(SA)>
2.000

> <Valence>
15.601

> <Coulomb>
-10.573

> <VdW>
3.427

> <VdW6>
-11.360

> <VdW12>
14.787

> <Bond>
0.471

> <Angle>
5.445

> <Pdih>
9.685

> <Idih>
0.000

> <Tether>
0.000

$$$$
VeraChem MOL file


 22 22  0  0  0  0  0  0  0  0999 V2000     
   21.5481   18.8771   23.0729 C   0  0  0  0  0  0  0  0  0  0  0  0
   21.1392   17.8925   22.8119 H   0  0  0  0  0  0  0  0  0  0  0  0
   22.5983   18.6894   23.3347 H   0  0  0  0  0  0  0  0  0  0  0  0
   20.8197   19.4322   24.3233 C   0  0  0  0  0  0  0  0  0  0  0  0
   20.9694   18.7126   25.1398 H   0  0  0  0  0  0  0  0  0  0  0  0
   21.3076   20.3601   24.6514 H   0  0  0  0  0  0  0  0  0  0  0  0
   19.2935   19.6832   24.1738 C   0  0  0  0  0  0  0  0  0  0  0  0
   19.0985   20.7569   24.0547 H   0  0  0  0  0  0  0  0  0  0  0  0
   18.8073   19.4110   25.1205 H   0  0  0  0  0  0  0  0  0  0  0  0
   18.6089   18.9022   23.0209 C   0  0  0  0  0  0  0  0  0  0  0  0
   18.8598   17.8377   23.1087 H   0  0  0  0  0  0  0  0  0  0  0  0
   17.5218   18.9486   23.1708 H   0  0  0  0  0  0  0  0  0  0  0  0
   18.9402   19.3883   21.5795 C   0  0  0  0  0  0  0  0  0  0  0  0
   19.1636   18.5033   20.9664 H   0  0  0  0  0  0  0  0  0  0  0  0
   20.1279   20.3752   21.4541 C   0  0  0  0  0  0  0  0  0  0  0  0
   20.1828   20.7355   20.4186 H   0  0  0  0  0  0  0  0  0  0  0  0
   19.9300   21.2695   22.0571 H   0  0  0  0  0  0  0  0  0  0  0  0
   21.5149   19.7962   21.8292 C   0  0  0  0  0  0  0  0  0  0  0  0
   21.9060   19.2280   20.9741 H   0  0  0  0  0  0  0  0  0  0  0  0
   22.2119   20.6317   21.9799 H   0  0  0  0  0  0  0  0  0  0  0  0
   17.7902   20.0354   21.0467 O   0  0  0  0  0  0  0  0  0  0  0  0
   18.0058   20.2793   20.1225 H   0  0  0  0  0  0  0  0  0  0  0  0
  1  2  1  0  0  0  0
  1  3  1  0  0  0  0
  1  4  1  0  0  0  0
  4  5  1  0  0  0  0
  4  6  1  0  0  0  0
  4  7  1  0  0  0  0
  7  8  1  0  0  0  0
  7  9  1  0  0  0  0
  7 10  1  0  0  0  0
 10 11  1  0  0  0  0
 10 12  1  0  0  0  0
 10 13  1  0  0  0  0
 13 14  1  0  0  0  0
 13 15  1  0  0  0  0
 15 16  1  0  0  0  0
 15 17  1  0  0  0  0
  1 18  1  0  0  0  0
 15 18  1  0  0  0  0
 18 19  1  0  0  0  0
 18 20  1  0  0  0  0
 13 21  1  0  0  0  0
 21 22  1  0  0  0  0
M  END
> <VConfSearch Rank>
537

> <Conf_Id>
141

> <Delta U+W>
0.000

> <U+W>
6.423

> <U>
8.781

> <W>
-2.358

> <W(PB)>
-4.373

> <W(SA)>
2.015

> <Valence>
13.328

> <Coulomb>
-8.387

> <VdW>
3.840

> <VdW6>
-9.744

> <VdW12>
13.584

> <Bond>
0.436

> <Angle>
3.478

> <Pdih>
9.415

> <Idih>
0.000

> <Tether>
0.000

$$$$
VeraChem MOL file


 22 22  0  0  0  0  0  0  0  0999 V2000     
   21.1055   19.2563   23.9535 C   0  0  0  0  0  0  0  0  0  0  0  0
   20.5376   18.3395   24.1627 H   0  0  0  0  0  0  0  0  0  0  0  0
   21.9584   19.2498   24.6459 H   0  0  0  0  0  0  0  0  0  0  0  0
   20.2590   20.5146   24.2630 C   0  0  0  0  0  0  0  0  0  0  0  0
   20.1099   20.5774   25.3496 H   0  0  0  0  0  0  0  0  0  0  0  0
   20.8280   21.4130   23.9875 H   0  0  0  0  0  0  0  0  0  0  0  0
   18.8714   20.5595   23.5827 C   0  0  0  0  0  0  0  0  0  0  0  0
   18.4026   21.5231   23.8242 H   0  0  0  0  0  0  0  0  0  0  0  0
   18.2228   19.7914   24.0257 H   0  0  0  0  0  0  0  0  0  0  0  0
   18.8919   20.3919   22.0436 C   0  0  0  0  0  0  0  0  0  0  0  0
   17.8992   20.6705   21.6662 H   0  0  0  0  0  0  0  0  0  0  0  0
   19.6006   21.0948   21.5869 H   0  0  0  0  0  0  0  0  0  0  0  0
   19.2071   18.9441   21.6053 C   0  0  0  0  0  0  0  0  0  0  0  0
   18.7904   18.2585   22.3571 H   0  0  0  0  0  0  0  0  0  0  0  0
   20.7133   18.6344   21.4484 C   0  0  0  0  0  0  0  0  0  0  0  0
   20.8298   17.5429   21.4579 H   0  0  0  0  0  0  0  0  0  0  0  0
   21.0507   18.9642   20.4567 H   0  0  0  0  0  0  0  0  0  0  0  0
   21.6616   19.2451   22.5104 C   0  0  0  0  0  0  0  0  0  0  0  0
   22.6008   18.6755   22.4943 H   0  0  0  0  0  0  0  0  0  0  0  0
   21.9331   20.2679   22.2157 H   0  0  0  0  0  0  0  0  0  0  0  0
   18.5734   18.6950   20.3564 O   0  0  0  0  0  0  0  0  0  0  0  0
   17.6120   18.8232   20.4972 H   0  0  0  0  0  0  0  0  0  0  0  0
  1  2  1  0  0  0  0
  1  3  1  0  0  0  0
  1  4  1  0  0  0  0
  4  5  1  0  0  0  0
  4  6  1  0  0  0  0
  4  7  1  0  0  0  0
  7  8  1  0  0  0  0
  7  9  1  0  0  0  0
  7 10  1  0  0  0  0
 10 11  1  0  0  0  0
 10 12  1  0  0  0  0
 10 13  1  0  0  0  0
 13 14  1  0  0  0  0
 13 15  1  0  0  0  0
 15 16  1  0  0  0  0
 15 17  1  0  0  0  0
  1 18  1  0  0  0  0
 15 18  1  0  0  0  0
 18 19  1  0  0  0  0
 18 20  1  0  0  0  0
 13 21  1  0  0  0  0
 21 22  1  0  0  0  0
M  END
> <VConfSearch Rank>
538

> <Conf_Id>
144

> <Delta U+W>
-3.291

> <U+W>
3.132

> <U>
5.411

> <W>
-2.279

> <W(PB)>
-4.300

> <W(SA)>
2.021

> <Valence>
11.909

> <Coulomb>
-8.733

> <VdW>
2.236

> <VdW6>
-8.936

> <VdW12>
11.172

> <Bond>
0.223

> <Angle>
2.457

> <Pdih>
9.228

> <Idih>
0.000

> <Tether>
0.000

$$$$
VeraChem MOL file


 22 22  0  0  0  0  0  0  0  0999 V2000     
   18.3716   20.2433   22.9128 C   0  0  0  0  0  0  0  0  0  0  0  0
   17.5338   20.9315   23.0897 H   0  0  0  0  0  0  0  0  0  0  0  0
   17.9290   19.2416   22.8270 H   0  0  0  0  0  0  0  0  0  0  0  0
   19.3219   20.3235   24.1305 C   0  0  0  0  0  0  0  0  0  0  0  0
   19.9880   21.1897   24.0179 H   0  0  0  0  0  0  0  0  0  0  0  0
   18.7278   20.5262   25.0321 H   0  0  0  0  0  0  0  0  0  0  0  0
   20.1640   19.0511   24.3908 C   0  0  0  0  0  0  0  0  0  0  0  0
   19.5610   18.3348   24.9654 H   0  0  0  0  0  0  0  0  0  0  0  0
   21.0044   19.3245   25.0435 H   0  0  0  0  0  0  0  0  0  0  0  0
   20.7138   18.3235   23.1392 C   0  0  0  0  0  0  0  0  0  0  0  0
   21.5357   17.6713   23.4639 H   0  0  0  0  0  0  0  0  0  0  0  0
   19.9403   17.6529   22.7433 H   0  0  0  0  0  0  0  0  0  0  0  0
   21.2097   19.2543   22.0099 C   0  0  0  0  0  0  0  0  0  0  0  0
   21.6532   20.1601   22.4474 H   0  0  0  0  0  0  0  0  0  0  0  0
   20.0817   19.6504   21.0303 C   0  0  0  0  0  0  0  0  0  0  0  0
   20.5348   20.0884   20.1308 H   0  0  0  0  0  0  0  0  0  0  0  0
   19.5538   18.7481   20.6953 H   0  0  0  0  0  0  0  0  0  0  0  0
   19.0527   20.6624   21.5879 C   0  0  0  0  0  0  0  0  0  0  0  0
   19.5377   21.6392   21.7201 H   0  0  0  0  0  0  0  0  0  0  0  0
   18.2749   20.8151   20.8273 H   0  0  0  0  0  0  0  0  0  0  0  0
   22.2086   18.5656   21.2696 O   0  0  0  0  0  0  0  0  0  0  0  0
   21.7776   17.7681   20.8989 H   0  0  0  0  0  0  0  0  0  0  0  0
  1  2  1  0  0  0  0
  1  3  1  0  0  0  0
  1  4  1  0  0  0  0
  4  5  1  0  0  0  0
  4  6  1  0  0  0  0
  4  7  1  0  0  0  0
  7  8  1  0  0  0  0
  7  9  1  0  0  0  0
  7 10  1  0  0  0  0
 10 11  1  0  0  0  0
 10 12  1  0  0  0  0
 10 13  1  0  0  0  0
 13 14  1  0  0  0  0
 13 15  1  0  0  0  0
 15 16  1  0  0  0  0
 15 17  1  0  0  0  0
  1 18  1  0  0  0  0
 15 18  1  0  0  0  0
 18 19  1  0  0  0  0
 18 20  1  0  0  0  0
 13 21  1  0  0  0  0
 21 22  1  0  0  0  0
M  END
> <VConfSearch Rank>
539

> <Conf_Id>
76

> <Delta U+W>
-3.175

> <U+W>
3.248

> <U>
5.336

> <W>
-2.088

> <W(PB)>
-4.098

> <W(SA)>
2.010

> <Valence>
12.390

> <Coulomb>
-9.270

> <VdW>
2.216

> <VdW6>
-8.967

> <VdW12>
11.183

> <Bond>
0.218

> <Angle>
2.426

> <Pdih>
9.745

> <Idih>
0.000

> <Tether>
0.000

$$$$
VeraChem MOL file


 22 22  0  0  0  0  0  0  0  0999 V2000     
   18.9814   18.3822   21.7113 C   0  0  0  0  0  0  0  0  0  0  0  0
   19.1625   17.9956   20.6991 H   0  0  0  0  0  0  0  0  0  0  0  0
   18.0743   17.8745   22.0665 H   0  0  0  0  0  0  0  0  0  0  0  0
   18.6981   19.8999   21.6062 C   0  0  0  0  0  0  0  0  0  0  0  0
   19.3259   20.3363   20.8176 H   0  0  0  0  0  0  0  0  0  0  0  0
   17.6628   20.0289   21.2624 H   0  0  0  0  0  0  0  0  0  0  0  0
   18.8942   20.6945   22.9184 C   0  0  0  0  0  0  0  0  0  0  0  0
   18.5643   20.1080   23.7868 H   0  0  0  0  0  0  0  0  0  0  0  0
   18.2431   21.5782   22.8825 H   0  0  0  0  0  0  0  0  0  0  0  0
   20.3508   21.1890   23.1085 C   0  0  0  0  0  0  0  0  0  0  0  0
   20.6771   21.7083   22.1984 H   0  0  0  0  0  0  0  0  0  0  0  0
   20.3621   21.9484   23.9013 H   0  0  0  0  0  0  0  0  0  0  0  0
   21.3971   20.1096   23.4678 C   0  0  0  0  0  0  0  0  0  0  0  0
   22.3848   20.5859   23.3860 H   0  0  0  0  0  0  0  0  0  0  0  0
   21.4107   18.8696   22.5389 C   0  0  0  0  0  0  0  0  0  0  0  0
   21.5720   19.1849   21.5000 H   0  0  0  0  0  0  0  0  0  0  0  0
   22.2885   18.2665   22.8047 H   0  0  0  0  0  0  0  0  0  0  0  0
   20.1547   17.9645   22.6296 C   0  0  0  0  0  0  0  0  0  0  0  0
   20.4396   16.9370   22.3660 H   0  0  0  0  0  0  0  0  0  0  0  0
   19.8029   17.9111   23.6682 H   0  0  0  0  0  0  0  0  0  0  0  0
   21.2101   19.7059   24.8206 O   0  0  0  0  0  0  0  0  0  0  0  0
   21.8551   18.9891   24.9895 H   0  0  0  0  0  0  0  0  0  0  0  0
  1  2  1  0  0  0  0
  1  3  1  0  0  0  0
  1  4  1  0  0  0  0
  4  5  1  0  0  0  0
  4  6  1  0  0  0  0
  4  7  1  0  0  0  0
  7  8  1  0  0  0  0
  7  9  1  0  0  0  0
  7 10  1  0  0  0  0
 10 11  1  0  0  0  0
 10 12  1  0  0  0  0
 10 13  1  0  0  0  0
 13 14  1  0  0  0  0
 13 15  1  0  0  0  0
 15 16  1  0  0  0  0
 15 17  1  0  0  0  0
  1 18  1  0  0  0  0
 15 18  1  0  0  0  0
 18 19  1  0  0  0  0
 18 20  1  0  0  0  0
 13 21  1  0  0  0  0
 21 22  1  0  0  0  0
M  END
> <VConfSearch Rank>
540

> <Conf_Id>
95

> <Delta U+W>
-2.289

> <U+W>
4.134

> <U>
6.373

> <W>
-2.240

> <W(PB)>
-4.254

> <W(SA)>
2.015

> <Valence>
12.093

> <Coulomb>
-8.058

> <VdW>
2.339

> <VdW6>
-9.683

> <VdW12>
12.022

> <Bond>
0.268

> <Angle>
3.005

> <Pdih>
8.820

> <Idih>
0.000

> <Tether>
0.000

$$$$
VeraChem MOL file


 22 22  0  0  0  0  0  0  0  0999 V2000     
   20.4143   19.3485   20.8526 C   0  0  0  0  0  0  0  0  0  0  0  0
   20.9268   20.0258   20.1560 H   0  0  0  0  0  0  0  0  0  0  0  0
   20.1852   18.4433   20.2739 H   0  0  0  0  0  0  0  0  0  0  0  0
   19.0870   20.0147   21.2869 C   0  0  0  0  0  0  0  0  0  0  0  0
   19.2343   21.0994   21.3768 H   0  0  0  0  0  0  0  0  0  0  0  0
   18.3598   19.8838   20.4740 H   0  0  0  0  0  0  0  0  0  0  0  0
   18.4775   19.4674   22.5986 C   0  0  0  0  0  0  0  0  0  0  0  0
   18.6242   18.3816   22.6774 H   0  0  0  0  0  0  0  0  0  0  0  0
   17.3913   19.6265   22.5615 H   0  0  0  0  0  0  0  0  0  0  0  0
   19.0182   20.1926   23.8568 C   0  0  0  0  0  0  0  0  0  0  0  0
   18.9354   21.2772   23.7094 H   0  0  0  0  0  0  0  0  0  0  0  0
   18.3595   19.9631   24.7044 H   0  0  0  0  0  0  0  0  0  0  0  0
   20.4713   19.8585   24.2649 C   0  0  0  0  0  0  0  0  0  0  0  0
   20.7526   20.5733   25.0517 H   0  0  0  0  0  0  0  0  0  0  0  0
   21.5201   19.9935   23.1326 C   0  0  0  0  0  0  0  0  0  0  0  0
   21.5010   21.0118   22.7237 H   0  0  0  0  0  0  0  0  0  0  0  0
   22.5100   19.8733   23.5915 H   0  0  0  0  0  0  0  0  0  0  0  0
   21.3910   18.9562   21.9869 C   0  0  0  0  0  0  0  0  0  0  0  0
   22.3819   18.7997   21.5397 H   0  0  0  0  0  0  0  0  0  0  0  0
   21.1014   17.9801   22.3980 H   0  0  0  0  0  0  0  0  0  0  0  0
   20.5164   18.5475   24.8200 O   0  0  0  0  0  0  0  0  0  0  0  0
   19.8270   18.5119   25.5140 H   0  0  0  0  0  0  0  0  0  0  0  0
  1  2  1  0  0  0  0
  1  3  1  0  0  0  0
  1  4  1  0  0  0  0
  4  5  1  0  0  0  0
  4  6  1  0  0  0  0
  4  7  1  0  0  0  0
  7  8  1  0  0  0  0
  7  9  1  0  0  0  0
  7 10  1  0  0  0  0
 10 11  1  0  0  0  0
 10 12  1  0  0  0  0
 10 13  1  0  0  0  0
 13 14  1  0  0  0  0
 13 15  1  0  0  0  0
 15 16  1  0  0  0  0
 15 17  1  0  0  0  0
  1 18  1  0  0  0  0
 15 18  1  0  0  0  0
 18 19  1  0  0  0  0
 18 20  1  0  0  0  0
 13 21  1  0  0  0  0
 21 22  1  0  0  0  0
M  END
> <VConfSearch Rank>
541

> <Conf_Id>
41

> <Delta U+W>
-2.114

> <U+W>
4.310

> <U>
6.598

> <W>
-2.289

> <W(PB)>
-4.294

> <W(SA)>
2.005

> <Valence>
12.082

> <Coulomb>
-7.801

> <VdW>
2.317

> <VdW6>
-9.658

> <VdW12>
11.975

> <Bond>
0.267

> <Angle>
3.051

> <Pdih>
8.764

> <Idih>
0.000

> <Tether>
0.000

$$$$
VeraChem MOL file


 22 22  0  0  0  0  0  0  0  0999 V2000     
   18.6795   20.2107   23.3040 C   0  0  0  0  0  0  0  0  0  0  0  0
   17.6867   20.6608   23.4392 H   0  0  0  0  0  0  0  0  0  0  0  0
   18.9626   19.7907   24.2791 H   0  0  0  0  0  0  0  0  0  0  0  0
   19.6563   21.3334   22.8883 C   0  0  0  0  0  0  0  0  0  0  0  0
   19.3935   21.6964   21.8854 H   0  0  0  0  0  0  0  0  0  0  0  0
   19.5164   22.1880   23.5641 H   0  0  0  0  0  0  0  0  0  0  0  0
   21.1476   20.9332   22.9171 C   0  0  0  0  0  0  0  0  0  0  0  0
   21.4634   20.7745   23.9569 H   0  0  0  0  0  0  0  0  0  0  0  0
   21.7347   21.7896   22.5592 H   0  0  0  0  0  0  0  0  0  0  0  0
   21.5153   19.6948   22.0556 C   0  0  0  0  0  0  0  0  0  0  0  0
   21.1320   19.8188   21.0348 H   0  0  0  0  0  0  0  0  0  0  0  0
   22.6084   19.6692   21.9605 H   0  0  0  0  0  0  0  0  0  0  0  0
   21.0738   18.3198   22.6200 C   0  0  0  0  0  0  0  0  0  0  0  0
   21.6652   17.5577   22.0922 H   0  0  0  0  0  0  0  0  0  0  0  0
   19.5863   17.9424   22.3962 C   0  0  0  0  0  0  0  0  0  0  0  0
   19.5263   17.3241   21.4912 H   0  0  0  0  0  0  0  0  0  0  0  0
   19.2562   17.2885   23.2141 H   0  0  0  0  0  0  0  0  0  0  0  0
   18.5644   19.0959   22.2410 C   0  0  0  0  0  0  0  0  0  0  0  0
   18.6431   19.5312   21.2357 H   0  0  0  0  0  0  0  0  0  0  0  0
   17.5570   18.6614   22.2955 H   0  0  0  0  0  0  0  0  0  0  0  0
   21.3891   18.2259   24.0066 O   0  0  0  0  0  0  0  0  0  0  0  0
   21.1261   17.3287   24.2962 H   0  0  0  0  0  0  0  0  0  0  0  0
  1  2  1  0  0  0  0
  1  3  1  0  0  0  0
  1  4  1  0  0  0  0
  4  5  1  0  0  0  0
  4  6  1  0  0  0  0
  4  7  1  0  0  0  0
  7  8  1  0  0  0  0
  7  9  1  0  0  0  0
  7 10  1  0  0  0  0
 10 11  1  0  0  0  0
 10 12  1  0  0  0  0
 10 13  1  0  0  0  0
 13 14  1  0  0  0  0
 13 15  1  0  0  0  0
 15 16  1  0  0  0  0
 15 17  1  0  0  0  0
  1 18  1  0  0  0  0
 15 18  1  0  0  0  0
 18 19  1  0  0  0  0
 18 20  1  0  0  0  0
 13 21  1  0  0  0  0
 21 22  1  0  0  0  0
M  END
> <VConfSearch Rank>
542

> <Conf_Id>
104

> <Delta U+W>
-1.172

> <U+W>
5.252

> <U>
7.482

> <W>
-2.230

> <W(PB)>
-4.220

> <W(SA)>
1.990

> <Valence>
12.309

> <Coulomb>
-7.084

> <VdW>
2.258

> <VdW6>
-9.770

> <VdW12>
12.028

> <Bond>
0.284

> <Angle>
3.491

> <Pdih>
8.535

> <Idih>
0.000

> <Tether>
0.000

$$$$
VeraChem MOL file


 22 22  0  0  0  0  0  0  0  0999 V2000     
   21.2617   20.6809   22.3936 C   0  0  0  0  0  0  0  0  0  0  0  0
   21.1878   21.1110   23.4016 H   0  0  0  0  0  0  0  0  0  0  0  0
   22.0388   21.2586   21.8748 H   0  0  0  0  0  0  0  0  0  0  0  0
   19.9381   20.8644   21.6166 C   0  0  0  0  0  0  0  0  0  0  0  0
   19.8965   21.8933   21.2336 H   0  0  0  0  0  0  0  0  0  0  0  0
   19.9507   20.2286   20.7216 H   0  0  0  0  0  0  0  0  0  0  0  0
   18.6423   20.6101   22.4278 C   0  0  0  0  0  0  0  0  0  0  0  0
   17.8443   20.3252   21.7283 H   0  0  0  0  0  0  0  0  0  0  0  0
   18.3164   21.5619   22.8692 H   0  0  0  0  0  0  0  0  0  0  0  0
   18.7136   19.5638   23.5730 C   0  0  0  0  0  0  0  0  0  0  0  0
   19.1873   20.0234   24.4500 H   0  0  0  0  0  0  0  0  0  0  0  0
   17.6870   19.3352   23.8874 H   0  0  0  0  0  0  0  0  0  0  0  0
   19.4299   18.2291   23.2641 C   0  0  0  0  0  0  0  0  0  0  0  0
   19.0610   17.4855   23.9851 H   0  0  0  0  0  0  0  0  0  0  0  0
   20.9615   18.3123   23.4525 C   0  0  0  0  0  0  0  0  0  0  0  0
   21.1720   18.6558   24.4737 H   0  0  0  0  0  0  0  0  0  0  0  0
   21.3693   17.2948   23.3931 H   0  0  0  0  0  0  0  0  0  0  0  0
   21.7335   19.2085   22.4526 C   0  0  0  0  0  0  0  0  0  0  0  0
   22.7936   19.1973   22.7403 H   0  0  0  0  0  0  0  0  0  0  0  0
   21.6957   18.7645   21.4487 H   0  0  0  0  0  0  0  0  0  0  0  0
   19.1217   17.7902   21.9502 O   0  0  0  0  0  0  0  0  0  0  0  0
   19.4011   18.5330   21.3789 H   0  0  0  0  0  0  0  0  0  0  0  0
  1  2  1  0  0  0  0
  1  3  1  0  0  0  0
  1  4  1  0  0  0  0
  4  5  1  0  0  0  0
  4  6  1  0  0  0  0
  4  7  1  0  0  0  0
  7  8  1  0  0  0  0
  7  9  1  0  0  0  0
  7 10  1  0  0  0  0
 10 11  1  0  0  0  0
 10 12  1  0  0  0  0
 10 13  1  0  0  0  0
 13 14  1  0  0  0  0
 13 15  1  0  0  0  0
 15 16  1  0  0  0  0
 15 17  1  0  0  0  0
  1 18  1  0  0  0  0
 15 18  1  0  0  0  0
 18 19  1  0  0  0  0
 18 20  1  0  0  0  0
 13 21  1  0  0  0  0
 21 22  1  0  0  0  0
M  END
> <VConfSearch Rank>
543

> <Conf_Id>
99

> <Delta U+W>
-3.852

> <U+W>
2.572

> <U>
3.922

> <W>
-1.350

> <W(PB)>
-3.345

> <W(SA)>
1.995

> <Valence>
12.571

> <Coulomb>
-10.581

> <VdW>
1.932

> <VdW6>
-10.483

> <VdW12>
12.415

> <Bond>
0.268

> <Angle>
3.728

> <Pdih>
8.575

> <Idih>
0.000

> <Tether>
0.000

$$$$
VeraChem MOL file


 22 22  0  0  0  0  0  0  0  0999 V2000     
   20.8959   19.2709   21.2621 C   0  0  0  0  0  0  0  0  0  0  0  0
   21.6917   18.7658   20.6974 H   0  0  0  0  0  0  0  0  0  0  0  0
   20.3458   19.8567   20.5136 H   0  0  0  0  0  0  0  0  0  0  0  0
   21.5716   20.2196   22.2951 C   0  0  0  0  0  0  0  0  0  0  0  0
   22.6600   20.1253   22.1774 H   0  0  0  0  0  0  0  0  0  0  0  0
   21.3500   21.2666   22.0488 H   0  0  0  0  0  0  0  0  0  0  0  0
   21.2329   19.9538   23.7841 C   0  0  0  0  0  0  0  0  0  0  0  0
   21.9129   20.5516   24.4062 H   0  0  0  0  0  0  0  0  0  0  0  0
   21.4704   18.9132   24.0379 H   0  0  0  0  0  0  0  0  0  0  0  0
   19.7779   20.2813   24.2208 C   0  0  0  0  0  0  0  0  0  0  0  0
   19.5548   19.7064   25.1288 H   0  0  0  0  0  0  0  0  0  0  0  0
   19.7367   21.3350   24.5271 H   0  0  0  0  0  0  0  0  0  0  0  0
   18.6371   20.0474   23.2000 C   0  0  0  0  0  0  0  0  0  0  0  0
   17.6915   20.1147   23.7568 H   0  0  0  0  0  0  0  0  0  0  0  0
   18.6360   18.6788   22.4754 C   0  0  0  0  0  0  0  0  0  0  0  0
   18.2777   17.9146   23.1770 H   0  0  0  0  0  0  0  0  0  0  0  0
   17.8766   18.7244   21.6834 H   0  0  0  0  0  0  0  0  0  0  0  0
   19.9675   18.1777   21.8501 C   0  0  0  0  0  0  0  0  0  0  0  0
   20.5196   17.5791   22.5852 H   0  0  0  0  0  0  0  0  0  0  0  0
   19.7167   17.4687   21.0493 H   0  0  0  0  0  0  0  0  0  0  0  0
   18.6340   21.0935   22.2414 O   0  0  0  0  0  0  0  0  0  0  0  0
   19.4886   20.9908   21.7766 H   0  0  0  0  0  0  0  0  0  0  0  0
  1  2  1  0  0  0  0
  1  3  1  0  0  0  0
  1  4  1  0  0  0  0
  4  5  1  0  0  0  0
  4  6  1  0  0  0  0
  4  7  1  0  0  0  0
  7  8  1  0  0  0  0
  7  9  1  0  0  0  0
  7 10  1  0  0  0  0
 10 11  1  0  0  0  0
 10 12  1  0  0  0  0
 10 13  1  0  0  0  0
 13 14  1  0  0  0  0
 13 15  1  0  0  0  0
 15 16  1  0  0  0  0
 15 17  1  0  0  0  0
  1 18  1  0  0  0  0
 15 18  1  0  0  0  0
 18 19  1  0  0  0  0
 18 20  1  0  0  0  0
 13 21  1  0  0  0  0
 21 22  1  0  0  0  0
M  END
> <VConfSearch Rank>
544

> <Conf_Id>
98

> <Delta U+W>
0.930

> <U+W>
7.353

> <U>
8.455

> <W>
-1.102

> <W(PB)>
-3.101

> <W(SA)>
2.000

> <Valence>
15.601

> <Coulomb>
-10.573

> <VdW>
3.427

> <VdW6>
-11.360

> <VdW12>
14.787

> <Bond>
0.471

> <Angle>
5.445

> <Pdih>
9.685

> <Idih>
0.000

> <Tether>
0.000

$$$$
VeraChem MOL file


 22 22  0  0  0  0  0  0  0  0999 V2000     
   20.4784   18.9893   21.0919 C   0  0  0  0  0  0  0  0  0  0  0  0
   21.1395   19.8640   21.0398 H   0  0  0  0  0  0  0  0  0  0  0  0
   20.6632   18.4365   20.1608 H   0  0  0  0  0  0  0  0  0  0  0  0
   18.9990   19.4510   21.1062 C   0  0  0  0  0  0  0  0  0  0  0  0
   18.8230   20.0256   20.1866 H   0  0  0  0  0  0  0  0  0  0  0  0
   18.3397   18.5748   21.0401 H   0  0  0  0  0  0  0  0  0  0  0  0
   18.5646   20.3268   22.3141 C   0  0  0  0  0  0  0  0  0  0  0  0
   17.9856   19.7249   23.0264 H   0  0  0  0  0  0  0  0  0  0  0  0
   17.8613   21.0879   21.9499 H   0  0  0  0  0  0  0  0  0  0  0  0
   19.7242   21.0381   23.0606 C   0  0  0  0  0  0  0  0  0  0  0  0
   20.3369   21.5864   22.3343 H   0  0  0  0  0  0  0  0  0  0  0  0
   19.2931   21.8137   23.7079 H   0  0  0  0  0  0  0  0  0  0  0  0
   20.6452   20.1209   23.9175 C   0  0  0  0  0  0  0  0  0  0  0  0
   21.6886   20.3943   23.7042 H   0  0  0  0  0  0  0  0  0  0  0  0
   20.4880   18.5972   23.6857 C   0  0  0  0  0  0  0  0  0  0  0  0
   21.0946   18.0604   24.4266 H   0  0  0  0  0  0  0  0  0  0  0  0
   19.4537   18.2971   23.8927 H   0  0  0  0  0  0  0  0  0  0  0  0
   20.9003   18.0933   22.2800 C   0  0  0  0  0  0  0  0  0  0  0  0
   21.9923   17.9779   22.2500 H   0  0  0  0  0  0  0  0  0  0  0  0
   20.4868   17.0858   22.1362 H   0  0  0  0  0  0  0  0  0  0  0  0
   20.3783   20.3727   25.2925 O   0  0  0  0  0  0  0  0  0  0  0  0
   21.0088   19.8272   25.8073 H   0  0  0  0  0  0  0  0  0  0  0  0
  1  2  1  0  0  0  0
  1  3  1  0  0  0  0
  1  4  1  0  0  0  0
  4  5  1  0  0  0  0
  4  6  1  0  0  0  0
  4  7  1  0  0  0  0
  7  8  1  0  0  0  0
  7  9  1  0  0  0  0
  7 10  1  0  0  0  0
 10 11  1  0  0  0  0
 10 12  1  0  0  0  0
 10 13  1  0  0  0  0
 13 14  1  0  0  0  0
 13 15  1  0  0  0  0
 15 16  1  0  0  0  0
 15 17  1  0  0  0  0
  1 18  1  0  0  0  0
 15 18  1  0  0  0  0
 18 19  1  0  0  0  0
 18 20  1  0  0  0  0
 13 21  1  0  0  0  0
 21 22  1  0  0  0  0
M  END
> <VConfSearch Rank>
545

> <Conf_Id>
141

> <Delta U+W>
0.000

> <U+W>
6.423

> <U>
8.781

> <W>
-2.358

> <W(PB)>
-4.373

> <W(SA)>
2.015

> <Valence>
13.328

> <Coulomb>
-8.387

> <VdW>
3.840

> <VdW6>
-9.744

> <VdW12>
13.584

> <Bond>
0.436

> <Angle>
3.478

> <Pdih>
9.415

> <Idih>
0.000

> <Tether>
0.000

$$$$
VeraChem MOL file


 22 22  0  0  0  0  0  0  0  0999 V2000     
   20.3784   17.9457   23.0218 C   0  0  0  0  0  0  0  0  0  0  0  0
   19.6373   17.9717   23.8321 H   0  0  0  0  0  0  0  0  0  0  0  0
   20.7672   16.9185   22.9986 H   0  0  0  0  0  0  0  0  0  0  0  0
   21.5659   18.8904   23.3273 C   0  0  0  0  0  0  0  0  0  0  0  0
   22.1328   18.4776   24.1729 H   0  0  0  0  0  0  0  0  0  0  0  0
   22.2592   18.8910   22.4752 H   0  0  0  0  0  0  0  0  0  0  0  0
   21.1780   20.3468   23.6719 C   0  0  0  0  0  0  0  0  0  0  0  0
   22.1025   20.9262   23.7996 H   0  0  0  0  0  0  0  0  0  0  0  0
   20.6734   20.3689   24.6475 H   0  0  0  0  0  0  0  0  0  0  0  0
   20.2927   21.0549   22.6173 C   0  0  0  0  0  0  0  0  0  0  0  0
   20.2832   22.1262   22.8573 H   0  0  0  0  0  0  0  0  0  0  0  0
   20.7382   20.9697   21.6177 H   0  0  0  0  0  0  0  0  0  0  0  0
   18.8395   20.5297   22.6089 C   0  0  0  0  0  0  0  0  0  0  0  0
   18.5722   20.2402   23.6353 H   0  0  0  0  0  0  0  0  0  0  0  0
   18.6017   19.3138   21.6846 C   0  0  0  0  0  0  0  0  0  0  0  0
   17.6611   18.8408   21.9949 H   0  0  0  0  0  0  0  0  0  0  0  0
   18.4371   19.6650   20.6572 H   0  0  0  0  0  0  0  0  0  0  0  0
   19.7144   18.2362   21.6555 C   0  0  0  0  0  0  0  0  0  0  0  0
   19.2766   17.3066   21.2669 H   0  0  0  0  0  0  0  0  0  0  0  0
   20.4858   18.5241   20.9284 H   0  0  0  0  0  0  0  0  0  0  0  0
   17.9756   21.5785   22.1885 O   0  0  0  0  0  0  0  0  0  0  0  0
   18.0862   22.3101   22.8312 H   0  0  0  0  0  0  0  0  0  0  0  0
  1  2  1  0  0  0  0
  1  3  1  0  0  0  0
  1  4  1  0  0  0  0
  4  5  1  0  0  0  0
  4  6  1  0  0  0  0
  4  7  1  0  0  0  0
  7  8  1  0  0  0  0
  7  9  1  0  0  0  0
  7 10  1  0  0  0  0
 10 11  1  0  0  0  0
 10 12  1  0  0  0  0
 10 13  1  0  0  0  0
 13 14  1  0  0  0  0
 13 15  1  0  0  0  0
 15 16  1  0  0  0  0
 15 17  1  0  0  0  0
  1 18  1  0  0  0  0
 15 18  1  0  0  0  0
 18 19  1  0  0  0  0
 18 20  1  0  0  0  0
 13 21  1  0  0  0  0
 21 22  1  0  0  0  0
M  END
> <VConfSearch Rank>
546

> <Conf_Id>
144

> <Delta U+W>
-3.291

> <U+W>
3.132

> <U>
5.411

> <W>
-2.279

> <W(PB)>
-4.300

> <W(SA)>
2.021

> <Valence>
11.909

> <Coulomb>
-8.733

> <VdW>
2.236

> <VdW6>
-8.936

> <VdW12>
11.172

> <Bond>
0.223

> <Angle>
2.457

> <Pdih>
9.228

> <Idih>
0.000

> <Tether>
0.000

$$$$
VeraChem MOL file


 22 22  0  0  0  0  0  0  0  0999 V2000     
   19.3252   18.6408   21.3142 C   0  0  0  0  0  0  0  0  0  0  0  0
   19.1442   18.2124   20.3189 H   0  0  0  0  0  0  0  0  0  0  0  0
   18.6098   18.1526   21.9898 H   0  0  0  0  0  0  0  0  0  0  0  0
   19.0587   20.1623   21.2357 C   0  0  0  0  0  0  0  0  0  0  0  0
   19.9483   20.6692   20.8375 H   0  0  0  0  0  0  0  0  0  0  0  0
   18.2633   20.3463   20.5005 H   0  0  0  0  0  0  0  0  0  0  0  0
   18.6372   20.8246   22.5697 C   0  0  0  0  0  0  0  0  0  0  0  0
   17.5562   20.6881   22.7106 H   0  0  0  0  0  0  0  0  0  0  0  0
   18.7913   21.9085   22.4775 H   0  0  0  0  0  0  0  0  0  0  0  0
   19.3570   20.3198   23.8445 C   0  0  0  0  0  0  0  0  0  0  0  0
   19.2177   21.0748   24.6301 H   0  0  0  0  0  0  0  0  0  0  0  0
   18.8532   19.4151   24.2086 H   0  0  0  0  0  0  0  0  0  0  0  0
   20.8646   20.0298   23.6698 C   0  0  0  0  0  0  0  0  0  0  0  0
   21.2962   20.7433   22.9534 H   0  0  0  0  0  0  0  0  0  0  0  0
   21.1388   18.5856   23.1924 C   0  0  0  0  0  0  0  0  0  0  0  0
   22.2058   18.3658   23.3314 H   0  0  0  0  0  0  0  0  0  0  0  0
   20.5973   17.8785   23.8343 H   0  0  0  0  0  0  0  0  0  0  0  0
   20.7818   18.3037   21.7136 C   0  0  0  0  0  0  0  0  0  0  0  0
   21.4752   18.8516   21.0609 H   0  0  0  0  0  0  0  0  0  0  0  0
   20.9620   17.2385   21.5142 H   0  0  0  0  0  0  0  0  0  0  0  0
   21.5015   20.2014   24.9288 O   0  0  0  0  0  0  0  0  0  0  0  0
   21.0908   19.5530   25.5372 H   0  0  0  0  0  0  0  0  0  0  0  0
  1  2  1  0  0  0  0
  1  3  1  0  0  0  0
  1  4  1  0  0  0  0
  4  5  1  0  0  0  0
  4  6  1  0  0  0  0
  4  7  1  0  0  0  0
  7  8  1  0  0  0  0
  7  9  1  0  0  0  0
  7 10  1  0  0  0  0
 10 11  1  0  0  0  0
 10 12  1  0  0  0  0
 10 13  1  0  0  0  0
 13 14  1  0  0  0  0
 13 15  1  0  0  0  0
 15 16  1  0  0  0  0
 15 17  1  0  0  0  0
  1 18  1  0  0  0  0
 15 18  1  0  0  0  0
 18 19  1  0  0  0  0
 18 20  1  0  0  0  0
 13 21  1  0  0  0  0
 21 22  1  0  0  0  0
M  END
> <VConfSearch Rank>
547

> <Conf_Id>
76

> <Delta U+W>
-3.175

> <U+W>
3.248

> <U>
5.336

> <W>
-2.088

> <W(PB)>
-4.098

> <W(SA)>
2.010

> <Valence>
12.390

> <Coulomb>
-9.270

> <VdW>
2.216

> <VdW6>
-8.967

> <VdW12>
11.183

> <Bond>
0.218

> <Angle>
2.426

> <Pdih>
9.745

> <Idih>
0.000

> <Tether>
0.000

$$$$
VeraChem MOL file


 22 22  0  0  0  0  0  0  0  0999 V2000     
   21.0028   20.7019   23.8433 C   0  0  0  0  0  0  0  0  0  0  0  0
   21.3458   20.4808   24.8632 H   0  0  0  0  0  0  0  0  0  0  0  0
   21.3911   21.7024   23.6085 H   0  0  0  0  0  0  0  0  0  0  0  0
   19.4562   20.7540   23.8534 C   0  0  0  0  0  0  0  0  0  0  0  0
   19.0685   19.9970   24.5484 H   0  0  0  0  0  0  0  0  0  0  0  0
   19.1520   21.7221   24.2742 H   0  0  0  0  0  0  0  0  0  0  0  0
   18.7865   20.5744   22.4711 C   0  0  0  0  0  0  0  0  0  0  0  0
   19.3720   21.0673   21.6830 H   0  0  0  0  0  0  0  0  0  0  0  0
   17.8149   21.0861   22.4939 H   0  0  0  0  0  0  0  0  0  0  0  0
   18.5285   19.0876   22.1180 C   0  0  0  0  0  0  0  0  0  0  0  0
   18.0060   18.6038   22.9531 H   0  0  0  0  0  0  0  0  0  0  0  0
   17.8323   19.0446   21.2702 H   0  0  0  0  0  0  0  0  0  0  0  0
   19.7731   18.2459   21.7551 C   0  0  0  0  0  0  0  0  0  0  0  0
   19.4455   17.1970   21.7139 H   0  0  0  0  0  0  0  0  0  0  0  0
   20.9385   18.3196   22.7735 C   0  0  0  0  0  0  0  0  0  0  0  0
   20.5844   18.0151   23.7668 H   0  0  0  0  0  0  0  0  0  0  0  0
   21.6819   17.5669   22.4809 H   0  0  0  0  0  0  0  0  0  0  0  0
   21.6497   19.6949   22.8627 C   0  0  0  0  0  0  0  0  0  0  0  0
   22.6890   19.5355   23.1802 H   0  0  0  0  0  0  0  0  0  0  0  0
   21.7170   20.1497   21.8656 H   0  0  0  0  0  0  0  0  0  0  0  0
   20.2310   18.6188   20.4592 O   0  0  0  0  0  0  0  0  0  0  0  0
   21.0455   18.1022   20.2919 H   0  0  0  0  0  0  0  0  0  0  0  0
  1  2  1  0  0  0  0
  1  3  1  0  0  0  0
  1  4  1  0  0  0  0
  4  5  1  0  0  0  0
  4  6  1  0  0  0  0
  4  7  1  0  0  0  0
  7  8  1  0  0  0  0
  7  9  1  0  0  0  0
  7 10  1  0  0  0  0
 10 11  1  0  0  0  0
 10 12  1  0  0  0  0
 10 13  1  0  0  0  0
 13 14  1  0  0  0  0
 13 15  1  0  0  0  0
 15 16  1  0  0  0  0
 15 17  1  0  0  0  0
  1 18  1  0  0  0  0
 15 18  1  0  0  0  0
 18 19  1  0  0  0  0
 18 20  1  0  0  0  0
 13 21  1  0  0  0  0
 21 22  1  0  0  0  0
M  END
> <VConfSearch Rank>
548

> <Conf_Id>
95

> <Delta U+W>
-2.289

> <U+W>
4.134

> <U>
6.373

> <W>
-2.240

> <W(PB)>
-4.254

> <W(SA)>
2.015

> <Valence>
12.093

> <Coulomb>
-8.058

> <VdW>
2.339

> <VdW6>
-9.683

> <VdW12>
12.022

> <Bond>
0.268

> <Angle>
3.005

> <Pdih>
8.820

> <Idih>
0.000

> <Tether>
0.000

$$$$
VeraChem MOL file


 22 22  0  0  0  0  0  0  0  0999 V2000     
   20.7397   19.8645   20.9420 C   0  0  0  0  0  0  0  0  0  0  0  0
   20.2872   19.5535   19.9905 H   0  0  0  0  0  0  0  0  0  0  0  0
   21.6702   20.3831   20.6739 H   0  0  0  0  0  0  0  0  0  0  0  0
   21.0902   18.5922   21.7499 C   0  0  0  0  0  0  0  0  0  0  0  0
   20.3203   17.8274   21.5804 H   0  0  0  0  0  0  0  0  0  0  0  0
   22.0171   18.1721   21.3361 H   0  0  0  0  0  0  0  0  0  0  0  0
   21.2729   18.8107   23.2699 C   0  0  0  0  0  0  0  0  0  0  0  0
   21.7676   19.7705   23.4726 H   0  0  0  0  0  0  0  0  0  0  0  0
   21.9508   18.0328   23.6465 H   0  0  0  0  0  0  0  0  0  0  0  0
   19.9413   18.6968   24.0543 C   0  0  0  0  0  0  0  0  0  0  0  0
   19.4323   17.7685   23.7644 H   0  0  0  0  0  0  0  0  0  0  0  0
   20.1714   18.5814   25.1214 H   0  0  0  0  0  0  0  0  0  0  0  0
   18.9523   19.8740   23.8937 C   0  0  0  0  0  0  0  0  0  0  0  0
   18.0075   19.5610   24.3611 H   0  0  0  0  0  0  0  0  0  0  0  0
   18.6274   20.2652   22.4302 C   0  0  0  0  0  0  0  0  0  0  0  0
   18.2238   19.3983   21.8915 H   0  0  0  0  0  0  0  0  0  0  0  0
   17.8144   21.0019   22.4644 H   0  0  0  0  0  0  0  0  0  0  0  0
   19.8064   20.8852   21.6359 C   0  0  0  0  0  0  0  0  0  0  0  0
   19.3993   21.5501   20.8624 H   0  0  0  0  0  0  0  0  0  0  0  0
   20.3989   21.5347   22.2937 H   0  0  0  0  0  0  0  0  0  0  0  0
   19.4455   21.0054   24.6047 O   0  0  0  0  0  0  0  0  0  0  0  0
   19.6497   20.7005   25.5122 H   0  0  0  0  0  0  0  0  0  0  0  0
  1  2  1  0  0  0  0
  1  3  1  0  0  0  0
  1  4  1  0  0  0  0
  4  5  1  0  0  0  0
  4  6  1  0  0  0  0
  4  7  1  0  0  0  0
  7  8  1  0  0  0  0
  7  9  1  0  0  0  0
  7 10  1  0  0  0  0
 10 11  1  0  0  0  0
 10 12  1  0  0  0  0
 10 13  1  0  0  0  0
 13 14  1  0  0  0  0
 13 15  1  0  0  0  0
 15 16  1  0  0  0  0
 15 17  1  0  0  0  0
  1 18  1  0  0  0  0
 15 18  1  0  0  0  0
 18 19  1  0  0  0  0
 18 20  1  0  0  0  0
 13 21  1  0  0  0  0
 21 22  1  0  0  0  0
M  END
> <VConfSearch Rank>
549

> <Conf_Id>
41

> <Delta U+W>
-2.114

> <U+W>
4.310

> <U>
6.598

> <W>
-2.289

> <W(PB)>
-4.294

> <W(SA)>
2.005

> <Valence>
12.082

> <Coulomb>
-7.801

> <VdW>
2.317

> <VdW6>
-9.658

> <VdW12>
11.975

> <Bond>
0.267

> <Angle>
3.051

> <Pdih>
8.764

> <Idih>
0.000

> <Tether>
0.000

$$$$
VeraChem MOL file


 22 22  0  0  0  0  0  0  0  0999 V2000     
   19.7010   20.0421   21.1742 C   0  0  0  0  0  0  0  0  0  0  0  0
   19.5329   20.6055   20.2464 H   0  0  0  0  0  0  0  0  0  0  0  0
   19.7241   18.9810   20.8903 H   0  0  0  0  0  0  0  0  0  0  0  0
   18.5160   20.3281   22.1236 C   0  0  0  0  0  0  0  0  0  0  0  0
   18.5473   21.3782   22.4444 H   0  0  0  0  0  0  0  0  0  0  0  0
   17.5799   20.2130   21.5606 H   0  0  0  0  0  0  0  0  0  0  0  0
   18.4495   19.4118   23.3650 C   0  0  0  0  0  0  0  0  0  0  0  0
   18.2057   18.3882   23.0510 H   0  0  0  0  0  0  0  0  0  0  0  0
   17.6023   19.7395   23.9823 H   0  0  0  0  0  0  0  0  0  0  0  0
   19.7253   19.4061   24.2501 C   0  0  0  0  0  0  0  0  0  0  0  0
   20.0145   20.4346   24.5006 H   0  0  0  0  0  0  0  0  0  0  0  0
   19.4651   18.9308   25.2046 H   0  0  0  0  0  0  0  0  0  0  0  0
   20.9459   18.6411   23.6768 C   0  0  0  0  0  0  0  0  0  0  0  0
   21.6265   18.4557   24.5205 H   0  0  0  0  0  0  0  0  0  0  0  0
   21.7786   19.3978   22.6095 C   0  0  0  0  0  0  0  0  0  0  0  0
   22.6215   19.8827   23.1188 H   0  0  0  0  0  0  0  0  0  0  0  0
   22.2352   18.6677   21.9283 H   0  0  0  0  0  0  0  0  0  0  0  0
   21.0591   20.4795   21.7663 C   0  0  0  0  0  0  0  0  0  0  0  0
   20.9277   21.3918   22.3635 H   0  0  0  0  0  0  0  0  0  0  0  0
   21.7273   20.7615   20.9413 H   0  0  0  0  0  0  0  0  0  0  0  0
   20.5433   17.3747   23.1618 O   0  0  0  0  0  0  0  0  0  0  0  0
   21.3553   16.9241   22.8527 H   0  0  0  0  0  0  0  0  0  0  0  0
  1  2  1  0  0  0  0
  1  3  1  0  0  0  0
  1  4  1  0  0  0  0
  4  5  1  0  0  0  0
  4  6  1  0  0  0  0
  4  7  1  0  0  0  0
  7  8  1  0  0  0  0
  7  9  1  0  0  0  0
  7 10  1  0  0  0  0
 10 11  1  0  0  0  0
 10 12  1  0  0  0  0
 10 13  1  0  0  0  0
 13 14  1  0  0  0  0
 13 15  1  0  0  0  0
 15 16  1  0  0  0  0
 15 17  1  0  0  0  0
  1 18  1  0  0  0  0
 15 18  1  0  0  0  0
 18 19  1  0  0  0  0
 18 20  1  0  0  0  0
 13 21  1  0  0  0  0
 21 22  1  0  0  0  0
M  END
> <VConfSearch Rank>
550

> <Conf_Id>
104

> <Delta U+W>
-1.172

> <U+W>
5.252

> <U>
7.482

> <W>
-2.230

> <W(PB)>
-4.220

> <W(SA)>
1.990

> <Valence>
12.309

> <Coulomb>
-7.084

> <VdW>
2.258

> <VdW6>
-9.770

> <VdW12>
12.028

> <Bond>
0.284

> <Angle>
3.491

> <Pdih>
8.535

> <Idih>
0.000

> <Tether>
0.000

$$$$
VeraChem MOL file


 22 22  0  0  0  0  0  0  0  0999 V2000     
   20.7274   19.3928   24.1615 C   0  0  0  0  0  0  0  0  0  0  0  0
   21.1148   20.4202   24.1932 H   0  0  0  0  0  0  0  0  0  0  0  0
   21.0482   18.9199   25.0997 H   0  0  0  0  0  0  0  0  0  0  0  0
   21.3578   18.6008   22.9932 C   0  0  0  0  0  0  0  0  0  0  0  0
   22.3616   18.2711   23.2949 H   0  0  0  0  0  0  0  0  0  0  0  0
   20.7906   17.6744   22.8340 H   0  0  0  0  0  0  0  0  0  0  0  0
   21.4965   19.3725   21.6564 C   0  0  0  0  0  0  0  0  0  0  0  0
   21.5122   18.6437   20.8342 H   0  0  0  0  0  0  0  0  0  0  0  0
   22.4827   19.8563   21.6353 H   0  0  0  0  0  0  0  0  0  0  0  0
   20.4341   20.4628   21.3506 C   0  0  0  0  0  0  0  0  0  0  0  0
   20.6798   21.3716   21.9151 H   0  0  0  0  0  0  0  0  0  0  0  0
   20.5324   20.7449   20.2944 H   0  0  0  0  0  0  0  0  0  0  0  0
   18.9550   20.0990   21.6150 C   0  0  0  0  0  0  0  0  0  0  0  0
   18.3381   20.7730   21.0035 H   0  0  0  0  0  0  0  0  0  0  0  0
   18.5359   20.3211   23.0859 C   0  0  0  0  0  0  0  0  0  0  0  0
   18.7497   21.3627   23.3588 H   0  0  0  0  0  0  0  0  0  0  0  0
   17.4450   20.2168   23.1502 H   0  0  0  0  0  0  0  0  0  0  0  0
   19.1803   19.3843   24.1375 C   0  0  0  0  0  0  0  0  0  0  0  0
   18.8184   19.6915   25.1281 H   0  0  0  0  0  0  0  0  0  0  0  0
   18.8155   18.3581   23.9954 H   0  0  0  0  0  0  0  0  0  0  0  0
   18.6947   18.7582   21.2293 O   0  0  0  0  0  0  0  0  0  0  0  0
   19.3331   18.2318   21.7505 H   0  0  0  0  0  0  0  0  0  0  0  0
  1  2  1  0  0  0  0
  1  3  1  0  0  0  0
  1  4  1  0  0  0  0
  4  5  1  0  0  0  0
  4  6  1  0  0  0  0
  4  7  1  0  0  0  0
  7  8  1  0  0  0  0
  7  9  1  0  0  0  0
  7 10  1  0  0  0  0
 10 11  1  0  0  0  0
 10 12  1  0  0  0  0
 10 13  1  0  0  0  0
 13 14  1  0  0  0  0
 13 15  1  0  0  0  0
 15 16  1  0  0  0  0
 15 17  1  0  0  0  0
  1 18  1  0  0  0  0
 15 18  1  0  0  0  0
 18 19  1  0  0  0  0
 18 20  1  0  0  0  0
 13 21  1  0  0  0  0
 21 22  1  0  0  0  0
M  END
> <VConfSearch Rank>
551

> <Conf_Id>
99

> <Delta U+W>
-3.852

> <U+W>
2.572

> <U>
3.922

> <W>
-1.350

> <W(PB)>
-3.345

> <W(SA)>
1.995

> <Valence>
12.571

> <Coulomb>
-10.581

> <VdW>
1.932

> <VdW6>
-10.483

> <VdW12>
12.415

> <Bond>
0.268

> <Angle>
3.728

> <Pdih>
8.575

> <Idih>
0.000

> <Tether>
0.000

$$$$
VeraChem MOL file


 22 22  0  0  0  0  0  0  0  0999 V2000     
   19.3601   18.1859   23.2156 C   0  0  0  0  0  0  0  0  0  0  0  0
   19.0594   17.1380   23.0781 H   0  0  0  0  0  0  0  0  0  0  0  0
   19.0406   18.4406   24.2350 H   0  0  0  0  0  0  0  0  0  0  0  0
   18.5807   19.0463   22.1783 C   0  0  0  0  0  0  0  0  0  0  0  0
   17.9424   18.3709   21.5920 H   0  0  0  0  0  0  0  0  0  0  0  0
   17.8824   19.7194   22.6934 H   0  0  0  0  0  0  0  0  0  0  0  0
   19.4469   19.8598   21.1831 C   0  0  0  0  0  0  0  0  0  0  0  0
   18.7903   20.2581   20.3977 H   0  0  0  0  0  0  0  0  0  0  0  0
   20.1332   19.1872   20.6538 H   0  0  0  0  0  0  0  0  0  0  0  0
   20.2416   21.0507   21.7873 C   0  0  0  0  0  0  0  0  0  0  0  0
   21.0788   21.2804   21.1156 H   0  0  0  0  0  0  0  0  0  0  0  0
   19.6002   21.9419   21.7665 H   0  0  0  0  0  0  0  0  0  0  0  0
   20.7937   20.9071   23.2270 C   0  0  0  0  0  0  0  0  0  0  0  0
   21.5009   21.7345   23.3820 H   0  0  0  0  0  0  0  0  0  0  0  0
   21.5583   19.5973   23.5401 C   0  0  0  0  0  0  0  0  0  0  0  0
   22.5512   19.6552   23.0758 H   0  0  0  0  0  0  0  0  0  0  0  0
   21.7450   19.5738   24.6220 H   0  0  0  0  0  0  0  0  0  0  0  0
   20.9063   18.2491   23.1254 C   0  0  0  0  0  0  0  0  0  0  0  0
   21.2295   17.9774   22.1128 H   0  0  0  0  0  0  0  0  0  0  0  0
   21.3233   17.4623   23.7686 H   0  0  0  0  0  0  0  0  0  0  0  0
   19.7389   21.0773   24.1606 O   0  0  0  0  0  0  0  0  0  0  0  0
   19.1422   20.3228   23.9833 H   0  0  0  0  0  0  0  0  0  0  0  0
  1  2  1  0  0  0  0
  1  3  1  0  0  0  0
  1  4  1  0  0  0  0
  4  5  1  0  0  0  0
  4  6  1  0  0  0  0
  4  7  1  0  0  0  0
  7  8  1  0  0  0  0
  7  9  1  0  0  0  0
  7 10  1  0  0  0  0
 10 11  1  0  0  0  0
 10 12  1  0  0  0  0
 10 13  1  0  0  0  0
 13 14  1  0  0  0  0
 13 15  1  0  0  0  0
 15 16  1  0  0  0  0
 15 17  1  0  0  0  0
  1 18  1  0  0  0  0
 15 18  1  0  0  0  0
 18 19  1  0  0  0  0
 18 20  1  0  0  0  0
 13 21  1  0  0  0  0
 21 22  1  0  0  0  0
M  END
> <VConfSearch Rank>
552

> <Conf_Id>
98

> <Delta U+W>
0.930

> <U+W>
7.353

> <U>
8.455

> <W>
-1.102

> <W(PB)>
-3.101

> <W(SA)>
2.000

> <Valence>
15.601

> <Coulomb>
-10.573

> <VdW>
3.427

> <VdW6>
-11.360

> <VdW12>
14.787

> <Bond>
0.471

> <Angle>
5.445

> <Pdih>
9.685

> <Idih>
0.000

> <Tether>
0.000

$$$$
VeraChem MOL file


 22 22  0  0  0  0  0  0  0  0999 V2000     
   21.0086   18.3500   23.4079 C   0  0  0  0  0  0  0  0  0  0  0  0
   20.2915   18.3523   24.2390 H   0  0  0  0  0  0  0  0  0  0  0  0
   21.7460   17.5790   23.6698 H   0  0  0  0  0  0  0  0  0  0  0  0
   21.7310   19.7193   23.3355 C   0  0  0  0  0  0  0  0  0  0  0  0
   22.2398   19.8759   24.2965 H   0  0  0  0  0  0  0  0  0  0  0  0
   22.5279   19.6751   22.5808 H   0  0  0  0  0  0  0  0  0  0  0  0
   20.8322   20.9559   23.0571 C   0  0  0  0  0  0  0  0  0  0  0  0
   20.9416   21.2731   22.0119 H   0  0  0  0  0  0  0  0  0  0  0  0
   21.2151   21.7980   23.6496 H   0  0  0  0  0  0  0  0  0  0  0  0
   19.3278   20.7617   23.3839 C   0  0  0  0  0  0  0  0  0  0  0  0
   19.2280   20.3838   24.4090 H   0  0  0  0  0  0  0  0  0  0  0  0
   18.8480   21.7496   23.4001 H   0  0  0  0  0  0  0  0  0  0  0  0
   18.5362   19.8328   22.4172 C   0  0  0  0  0  0  0  0  0  0  0  0
   17.9294   19.1478   23.0267 H   0  0  0  0  0  0  0  0  0  0  0  0
   19.3908   18.9842   21.4426 C   0  0  0  0  0  0  0  0  0  0  0  0
   18.7228   18.4707   20.7389 H   0  0  0  0  0  0  0  0  0  0  0  0
   20.0067   19.6447   20.8207 H   0  0  0  0  0  0  0  0  0  0  0  0
   20.2915   17.9141   22.1085 C   0  0  0  0  0  0  0  0  0  0  0  0
   19.6828   17.0281   22.3350 H   0  0  0  0  0  0  0  0  0  0  0  0
   21.0413   17.5853   21.3761 H   0  0  0  0  0  0  0  0  0  0  0  0
   17.6658   20.6381   21.6304 O   0  0  0  0  0  0  0  0  0  0  0  0
   17.1404   20.0261   21.0741 H   0  0  0  0  0  0  0  0  0  0  0  0
  1  2  1  0  0  0  0
  1  3  1  0  0  0  0
  1  4  1  0  0  0  0
  4  5  1  0  0  0  0
  4  6  1  0  0  0  0
  4  7  1  0  0  0  0
  7  8  1  0  0  0  0
  7  9  1  0  0  0  0
  7 10  1  0  0  0  0
 10 11  1  0  0  0  0
 10 12  1  0  0  0  0
 10 13  1  0  0  0  0
 13 14  1  0  0  0  0
 13 15  1  0  0  0  0
 15 16  1  0  0  0  0
 15 17  1  0  0  0  0
  1 18  1  0  0  0  0
 15 18  1  0  0  0  0
 18 19  1  0  0  0  0
 18 20  1  0  0  0  0
 13 21  1  0  0  0  0
 21 22  1  0  0  0  0
M  END
> <VConfSearch Rank>
553

> <Conf_Id>
141

> <Delta U+W>
0.000

> <U+W>
6.423

> <U>
8.781

> <W>
-2.358

> <W(PB)>
-4.373

> <W(SA)>
2.015

> <Valence>
13.328

> <Coulomb>
-8.387

> <VdW>
3.840

> <VdW6>
-9.744

> <VdW12>
13.584

> <Bond>
0.436

> <Angle>
3.478

> <Pdih>
9.415

> <Idih>
0.000

> <Tether>
0.000

$$$$
VeraChem MOL file


 22 22  0  0  0  0  0  0  0  0999 V2000     
   18.2994   20.0531   22.8111 C   0  0  0  0  0  0  0  0  0  0  0  0
   18.5361   20.5315   23.7711 H   0  0  0  0  0  0  0  0  0  0  0  0
   17.2326   20.2445   22.6314 H   0  0  0  0  0  0  0  0  0  0  0  0
   18.4940   18.5199   22.8938 C   0  0  0  0  0  0  0  0  0  0  0  0
   17.7222   18.1044   23.5561 H   0  0  0  0  0  0  0  0  0  0  0  0
   18.3102   18.0757   21.9060 H   0  0  0  0  0  0  0  0  0  0  0  0
   19.8749   18.0576   23.4132 C   0  0  0  0  0  0  0  0  0  0  0  0
   19.9109   16.9609   23.3606 H   0  0  0  0  0  0  0  0  0  0  0  0
   19.9670   18.3095   24.4786 H   0  0  0  0  0  0  0  0  0  0  0  0
   21.0890   18.6296   22.6413 C   0  0  0  0  0  0  0  0  0  0  0  0
   21.9755   18.0580   22.9464 H   0  0  0  0  0  0  0  0  0  0  0  0
   20.9750   18.4635   21.5622 H   0  0  0  0  0  0  0  0  0  0  0  0
   21.3316   20.1269   22.9359 C   0  0  0  0  0  0  0  0  0  0  0  0
   21.0332   20.3259   23.9752 H   0  0  0  0  0  0  0  0  0  0  0  0
   20.5564   21.0962   22.0147 C   0  0  0  0  0  0  0  0  0  0  0  0
   20.5444   22.0791   22.5032 H   0  0  0  0  0  0  0  0  0  0  0  0
   21.1144   21.2324   21.0786 H   0  0  0  0  0  0  0  0  0  0  0  0
   19.1017   20.7003   21.6580 C   0  0  0  0  0  0  0  0  0  0  0  0
   18.5765   21.6047   21.3217 H   0  0  0  0  0  0  0  0  0  0  0  0
   19.1066   20.0243   20.7922 H   0  0  0  0  0  0  0  0  0  0  0  0
   22.7202   20.4023   22.7967 O   0  0  0  0  0  0  0  0  0  0  0  0
   23.1872   19.8320   23.4427 H   0  0  0  0  0  0  0  0  0  0  0  0
  1  2  1  0  0  0  0
  1  3  1  0  0  0  0
  1  4  1  0  0  0  0
  4  5  1  0  0  0  0
  4  6  1  0  0  0  0
  4  7  1  0  0  0  0
  7  8  1  0  0  0  0
  7  9  1  0  0  0  0
  7 10  1  0  0  0  0
 10 11  1  0  0  0  0
 10 12  1  0  0  0  0
 10 13  1  0  0  0  0
 13 14  1  0  0  0  0
 13 15  1  0  0  0  0
 15 16  1  0  0  0  0
 15 17  1  0  0  0  0
  1 18  1  0  0  0  0
 15 18  1  0  0  0  0
 18 19  1  0  0  0  0
 18 20  1  0  0  0  0
 13 21  1  0  0  0  0
 21 22  1  0  0  0  0
M  END
> <VConfSearch Rank>
554

> <Conf_Id>
144

> <Delta U+W>
-3.291

> <U+W>
3.132

> <U>
5.411

> <W>
-2.279

> <W(PB)>
-4.300

> <W(SA)>
2.021

> <Valence>
11.909

> <Coulomb>
-8.733

> <VdW>
2.236

> <VdW6>
-8.936

> <VdW12>
11.172

> <Bond>
0.223

> <Angle>
2.457

> <Pdih>
9.228

> <Idih>
0.000

> <Tether>
0.000

$$$$
VeraChem MOL file


 22 22  0  0  0  0  0  0  0  0999 V2000     
   20.6839   19.1576   21.1390 C   0  0  0  0  0  0  0  0  0  0  0  0
   21.0680   19.1809   20.1100 H   0  0  0  0  0  0  0  0  0  0  0  0
   20.9567   18.1733   21.5431 H   0  0  0  0  0  0  0  0  0  0  0  0
   19.1472   19.3224   21.0798 C   0  0  0  0  0  0  0  0  0  0  0  0
   18.8969   20.3885   20.9927 H   0  0  0  0  0  0  0  0  0  0  0  0
   18.7753   18.8580   20.1562 H   0  0  0  0  0  0  0  0  0  0  0  0
   18.3743   18.7029   22.2693 C   0  0  0  0  0  0  0  0  0  0  0  0
   18.2218   17.6320   22.0775 H   0  0  0  0  0  0  0  0  0  0  0  0
   17.3699   19.1475   22.2936 H   0  0  0  0  0  0  0  0  0  0  0  0
   19.0265   18.8546   23.6656 C   0  0  0  0  0  0  0  0  0  0  0  0
   18.2474   18.6826   24.4206 H   0  0  0  0  0  0  0  0  0  0  0  0
   19.7620   18.0525   23.8089 H   0  0  0  0  0  0  0  0  0  0  0  0
   19.7025   20.2198   23.9241 C   0  0  0  0  0  0  0  0  0  0  0  0
   19.1391   21.0126   23.4117 H   0  0  0  0  0  0  0  0  0  0  0  0
   21.1766   20.2484   23.4601 C   0  0  0  0  0  0  0  0  0  0  0  0
   21.6644   21.1321   23.8927 H   0  0  0  0  0  0  0  0  0  0  0  0
   21.7065   19.3785   23.8696 H   0  0  0  0  0  0  0  0  0  0  0  0
   21.3819   20.2919   21.9272 C   0  0  0  0  0  0  0  0  0  0  0  0
   21.0454   21.2642   21.5423 H   0  0  0  0  0  0  0  0  0  0  0  0
   22.4606   20.2469   21.7242 H   0  0  0  0  0  0  0  0  0  0  0  0
   19.6805   20.4715   25.3228 O   0  0  0  0  0  0  0  0  0  0  0  0
   20.1885   19.7469   25.7423 H   0  0  0  0  0  0  0  0  0  0  0  0
  1  2  1  0  0  0  0
  1  3  1  0  0  0  0
  1  4  1  0  0  0  0
  4  5  1  0  0  0  0
  4  6  1  0  0  0  0
  4  7  1  0  0  0  0
  7  8  1  0  0  0  0
  7  9  1  0  0  0  0
  7 10  1  0  0  0  0
 10 11  1  0  0  0  0
 10 12  1  0  0  0  0
 10 13  1  0  0  0  0
 13 14  1  0  0  0  0
 13 15  1  0  0  0  0
 15 16  1  0  0  0  0
 15 17  1  0  0  0  0
  1 18  1  0  0  0  0
 15 18  1  0  0  0  0
 18 19  1  0  0  0  0
 18 20  1  0  0  0  0
 13 21  1  0  0  0  0
 21 22  1  0  0  0  0
M  END
> <VConfSearch Rank>
555

> <Conf_Id>
76

> <Delta U+W>
-3.175

> <U+W>
3.248

> <U>
5.336

> <W>
-2.088

> <W(PB)>
-4.098

> <W(SA)>
2.010

> <Valence>
12.390

> <Coulomb>
-9.270

> <VdW>
2.216

> <VdW6>
-8.967

> <VdW12>
11.183

> <Bond>
0.218

> <Angle>
2.426

> <Pdih>
9.745

> <Idih>
0.000

> <Tether>
0.000

$$$$
VeraChem MOL file


 22 22  0  0  0  0  0  0  0  0999 V2000     
   20.0592   17.7025   22.9631 C   0  0  0  0  0  0  0  0  0  0  0  0
   20.5832   16.9402   22.3706 H   0  0  0  0  0  0  0  0  0  0  0  0
   19.5948   17.1627   23.7996 H   0  0  0  0  0  0  0  0  0  0  0  0
   18.9449   18.3180   22.0831 C   0  0  0  0  0  0  0  0  0  0  0  0
   19.2961   18.3913   21.0450 H   0  0  0  0  0  0  0  0  0  0  0  0
   18.1030   17.6127   22.0591 H   0  0  0  0  0  0  0  0  0  0  0  0
   18.4297   19.6991   22.5507 C   0  0  0  0  0  0  0  0  0  0  0  0
   18.3910   19.7542   23.6472 H   0  0  0  0  0  0  0  0  0  0  0  0
   17.3940   19.8123   22.2033 H   0  0  0  0  0  0  0  0  0  0  0  0
   19.2539   20.8755   21.9686 C   0  0  0  0  0  0  0  0  0  0  0  0
   19.3362   20.7549   20.8808 H   0  0  0  0  0  0  0  0  0  0  0  0
   18.6914   21.8061   22.1202 H   0  0  0  0  0  0  0  0  0  0  0  0
   20.6699   21.0739   22.5557 C   0  0  0  0  0  0  0  0  0  0  0  0
   21.1759   21.8145   21.9197 H   0  0  0  0  0  0  0  0  0  0  0  0
   21.5594   19.8054   22.5743 C   0  0  0  0  0  0  0  0  0  0  0  0
   21.6526   19.4014   21.5580 H   0  0  0  0  0  0  0  0  0  0  0  0
   22.5719   20.1153   22.8635 H   0  0  0  0  0  0  0  0  0  0  0  0
   21.0968   18.6903   23.5478 C   0  0  0  0  0  0  0  0  0  0  0  0
   21.9743   18.1098   23.8631 H   0  0  0  0  0  0  0  0  0  0  0  0
   20.6971   19.1357   24.4683 H   0  0  0  0  0  0  0  0  0  0  0  0
   20.5626   21.6159   23.8682 O   0  0  0  0  0  0  0  0  0  0  0  0
   21.4740   21.6762   24.2204 H   0  0  0  0  0  0  0  0  0  0  0  0
  1  2  1  0  0  0  0
  1  3  1  0  0  0  0
  1  4  1  0  0  0  0
  4  5  1  0  0  0  0
  4  6  1  0  0  0  0
  4  7  1  0  0  0  0
  7  8  1  0  0  0  0
  7  9  1  0  0  0  0
  7 10  1  0  0  0  0
 10 11  1  0  0  0  0
 10 12  1  0  0  0  0
 10 13  1  0  0  0  0
 13 14  1  0  0  0  0
 13 15  1  0  0  0  0
 15 16  1  0  0  0  0
 15 17  1  0  0  0  0
  1 18  1  0  0  0  0
 15 18  1  0  0  0  0
 18 19  1  0  0  0  0
 18 20  1  0  0  0  0
 13 21  1  0  0  0  0
 21 22  1  0  0  0  0
M  END
> <VConfSearch Rank>
556

> <Conf_Id>
95

> <Delta U+W>
-2.289

> <U+W>
4.134

> <U>
6.373

> <W>
-2.240

> <W(PB)>
-4.254

> <W(SA)>
2.015

> <Valence>
12.093

> <Coulomb>
-8.058

> <VdW>
2.339

> <VdW6>
-9.683

> <VdW12>
12.022

> <Bond>
0.268

> <Angle>
3.005

> <Pdih>
8.820

> <Idih>
0.000

> <Tether>
0.000

$$$$
VeraChem MOL file


 22 22  0  0  0  0  0  0  0  0999 V2000     
   20.2450   17.8539   22.0260 C   0  0  0  0  0  0  0  0  0  0  0  0
   21.1276   17.4100   21.5457 H   0  0  0  0  0  0  0  0  0  0  0  0
   19.4970   17.0508   22.0752 H   0  0  0  0  0  0  0  0  0  0  0  0
   19.7107   18.9805   21.1097 C   0  0  0  0  0  0  0  0  0  0  0  0
   20.5552   19.4940   20.6307 H   0  0  0  0  0  0  0  0  0  0  0  0
   19.1485   18.5131   20.2898 H   0  0  0  0  0  0  0  0  0  0  0  0
   18.8056   20.0209   21.8098 C   0  0  0  0  0  0  0  0  0  0  0  0
   18.1621   19.5409   22.5596 H   0  0  0  0  0  0  0  0  0  0  0  0
   18.1300   20.4465   21.0556 H   0  0  0  0  0  0  0  0  0  0  0  0
   19.6104   21.1881   22.4354 C   0  0  0  0  0  0  0  0  0  0  0  0
   20.3040   21.5887   21.6848 H   0  0  0  0  0  0  0  0  0  0  0  0
   18.9187   22.0103   22.6604 H   0  0  0  0  0  0  0  0  0  0  0  0
   20.4070   20.8569   23.7181 C   0  0  0  0  0  0  0  0  0  0  0  0
   21.0483   21.7254   23.9269 H   0  0  0  0  0  0  0  0  0  0  0  0
   21.3357   19.6210   23.6149 C   0  0  0  0  0  0  0  0  0  0  0  0
   22.0475   19.7551   22.7904 H   0  0  0  0  0  0  0  0  0  0  0  0
   21.9398   19.5921   24.5309 H   0  0  0  0  0  0  0  0  0  0  0  0
   20.6077   18.2588   23.4747 C   0  0  0  0  0  0  0  0  0  0  0  0
   21.2485   17.4718   23.8945 H   0  0  0  0  0  0  0  0  0  0  0  0
   19.7008   18.2548   24.0938 H   0  0  0  0  0  0  0  0  0  0  0  0
   19.5034   20.7004   24.8080 O   0  0  0  0  0  0  0  0  0  0  0  0
   18.9328   21.4957   24.8169 H   0  0  0  0  0  0  0  0  0  0  0  0
  1  2  1  0  0  0  0
  1  3  1  0  0  0  0
  1  4  1  0  0  0  0
  4  5  1  0  0  0  0
  4  6  1  0  0  0  0
  4  7  1  0  0  0  0
  7  8  1  0  0  0  0
  7  9  1  0  0  0  0
  7 10  1  0  0  0  0
 10 11  1  0  0  0  0
 10 12  1  0  0  0  0
 10 13  1  0  0  0  0
 13 14  1  0  0  0  0
 13 15  1  0  0  0  0
 15 16  1  0  0  0  0
 15 17  1  0  0  0  0
  1 18  1  0  0  0  0
 15 18  1  0  0  0  0
 18 19  1  0  0  0  0
 18 20  1  0  0  0  0
 13 21  1  0  0  0  0
 21 22  1  0  0  0  0
M  END
> <VConfSearch Rank>
557

> <Conf_Id>
41

> <Delta U+W>
-2.114

> <U+W>
4.310

> <U>
6.598

> <W>
-2.289

> <W(PB)>
-4.294

> <W(SA)>
2.005

> <Valence>
12.082

> <Coulomb>
-7.801

> <VdW>
2.317

> <VdW6>
-9.658

> <VdW12>
11.975

> <Bond>
0.267

> <Angle>
3.051

> <Pdih>
8.764

> <Idih>
0.000

> <Tether>
0.000

$$$$
VeraChem MOL file


 22 22  0  0  0  0  0  0  0  0999 V2000     
   20.3743   19.2298   24.3270 C   0  0  0  0  0  0  0  0  0  0  0  0
   20.3453   19.1652   25.4232 H   0  0  0  0  0  0  0  0  0  0  0  0
   21.0320   18.4176   23.9879 H   0  0  0  0  0  0  0  0  0  0  0  0
   20.9660   20.6061   23.9488 C   0  0  0  0  0  0  0  0  0  0  0  0
   20.2652   21.4001   24.2404 H   0  0  0  0  0  0  0  0  0  0  0  0
   21.8743   20.7728   24.5436 H   0  0  0  0  0  0  0  0  0  0  0  0
   21.3300   20.7627   22.4561 C   0  0  0  0  0  0  0  0  0  0  0  0
   22.1814   20.1116   22.2173 H   0  0  0  0  0  0  0  0  0  0  0  0
   21.6917   21.7881   22.3019 H   0  0  0  0  0  0  0  0  0  0  0  0
   20.1661   20.5009   21.4621 C   0  0  0  0  0  0  0  0  0  0  0  0
   19.2875   21.0940   21.7461 H   0  0  0  0  0  0  0  0  0  0  0  0
   20.4758   20.8815   20.4805 H   0  0  0  0  0  0  0  0  0  0  0  0
   19.7592   19.0172   21.2689 C   0  0  0  0  0  0  0  0  0  0  0  0
   19.1775   18.9687   20.3369 H   0  0  0  0  0  0  0  0  0  0  0  0
   18.8536   18.4143   22.3741 C   0  0  0  0  0  0  0  0  0  0  0  0
   17.8111   18.4971   22.0403 H   0  0  0  0  0  0  0  0  0  0  0  0
   19.0478   17.3362   22.4471 H   0  0  0  0  0  0  0  0  0  0  0  0
   18.9388   19.0301   23.7927 C   0  0  0  0  0  0  0  0  0  0  0  0
   18.3965   19.9849   23.8181 H   0  0  0  0  0  0  0  0  0  0  0  0
   18.3975   18.3658   24.4800 H   0  0  0  0  0  0  0  0  0  0  0  0
   20.9153   18.2016   21.0982 O   0  0  0  0  0  0  0  0  0  0  0  0
   20.5971   17.2894   20.9415 H   0  0  0  0  0  0  0  0  0  0  0  0
  1  2  1  0  0  0  0
  1  3  1  0  0  0  0
  1  4  1  0  0  0  0
  4  5  1  0  0  0  0
  4  6  1  0  0  0  0
  4  7  1  0  0  0  0
  7  8  1  0  0  0  0
  7  9  1  0  0  0  0
  7 10  1  0  0  0  0
 10 11  1  0  0  0  0
 10 12  1  0  0  0  0
 10 13  1  0  0  0  0
 13 14  1  0  0  0  0
 13 15  1  0  0  0  0
 15 16  1  0  0  0  0
 15 17  1  0  0  0  0
  1 18  1  0  0  0  0
 15 18  1  0  0  0  0
 18 19  1  0  0  0  0
 18 20  1  0  0  0  0
 13 21  1  0  0  0  0
 21 22  1  0  0  0  0
M  END
> <VConfSearch Rank>
558

> <Conf_Id>
104

> <Delta U+W>
-1.172

> <U+W>
5.252

> <U>
7.482

> <W>
-2.230

> <W(PB)>
-4.220

> <W(SA)>
1.990

> <Valence>
12.309

> <Coulomb>
-7.084

> <VdW>
2.258

> <VdW6>
-9.770

> <VdW12>
12.028

> <Bond>
0.284

> <Angle>
3.491

> <Pdih>
8.535

> <Idih>
0.000

> <Tether>
0.000

$$$$
VeraChem MOL file


 22 22  0  0  0  0  0  0  0  0999 V2000     
   21.5403   19.0247   23.1262 C   0  0  0  0  0  0  0  0  0  0  0  0
   21.7491   18.5867   22.1408 H   0  0  0  0  0  0  0  0  0  0  0  0
   22.4097   18.7853   23.7537 H   0  0  0  0  0  0  0  0  0  0  0  0
   20.2975   18.3685   23.7700 C   0  0  0  0  0  0  0  0  0  0  0  0
   20.5953   17.4030   24.2018 H   0  0  0  0  0  0  0  0  0  0  0  0
   19.9693   18.9729   24.6258 H   0  0  0  0  0  0  0  0  0  0  0  0
   19.1040   18.1106   22.8157 C   0  0  0  0  0  0  0  0  0  0  0  0
   18.1814   18.0844   23.4119 H   0  0  0  0  0  0  0  0  0  0  0  0
   19.2075   17.1010   22.3950 H   0  0  0  0  0  0  0  0  0  0  0  0
   18.9162   19.0946   21.6293 C   0  0  0  0  0  0  0  0  0  0  0  0
   19.6254   18.8356   20.8325 H   0  0  0  0  0  0  0  0  0  0  0  0
   17.9222   18.9193   21.1978 H   0  0  0  0  0  0  0  0  0  0  0  0
   19.0463   20.6038   21.9383 C   0  0  0  0  0  0  0  0  0  0  0  0
   18.5153   21.1473   21.1437 H   0  0  0  0  0  0  0  0  0  0  0  0
   20.5107   21.0971   21.9152 C   0  0  0  0  0  0  0  0  0  0  0  0
   20.9510   20.8457   20.9416 H   0  0  0  0  0  0  0  0  0  0  0  0
   20.5030   22.1939   21.9616 H   0  0  0  0  0  0  0  0  0  0  0  0
   21.4370   20.5659   23.0371 C   0  0  0  0  0  0  0  0  0  0  0  0
   22.4435   20.9693   22.8612 H   0  0  0  0  0  0  0  0  0  0  0  0
   21.1206   20.9749   24.0062 H   0  0  0  0  0  0  0  0  0  0  0  0
   18.4463   20.9105   23.1874 O   0  0  0  0  0  0  0  0  0  0  0  0
   18.9120   20.3325   23.8240 H   0  0  0  0  0  0  0  0  0  0  0  0
  1  2  1  0  0  0  0
  1  3  1  0  0  0  0
  1  4  1  0  0  0  0
  4  5  1  0  0  0  0
  4  6  1  0  0  0  0
  4  7  1  0  0  0  0
  7  8  1  0  0  0  0
  7  9  1  0  0  0  0
  7 10  1  0  0  0  0
 10 11  1  0  0  0  0
 10 12  1  0  0  0  0
 10 13  1  0  0  0  0
 13 14  1  0  0  0  0
 13 15  1  0  0  0  0
 15 16  1  0  0  0  0
 15 17  1  0  0  0  0
  1 18  1  0  0  0  0
 15 18  1  0  0  0  0
 18 19  1  0  0  0  0
 18 20  1  0  0  0  0
 13 21  1  0  0  0  0
 21 22  1  0  0  0  0
M  END
> <VConfSearch Rank>
559

> <Conf_Id>
99

> <Delta U+W>
-3.852

> <U+W>
2.572

> <U>
3.922

> <W>
-1.350

> <W(PB)>
-3.345

> <W(SA)>
1.995

> <Valence>
12.571

> <Coulomb>
-10.581

> <VdW>
1.932

> <VdW6>
-10.483

> <VdW12>
12.415

> <Bond>
0.268

> <Angle>
3.728

> <Pdih>
8.575

> <Idih>
0.000

> <Tether>
0.000

$$$$
VeraChem MOL file


 22 22  0  0  0  0  0  0  0  0999 V2000     
   21.6239   20.1259   22.9860 C   0  0  0  0  0  0  0  0  0  0  0  0
   22.7150   19.9986   22.9616 H   0  0  0  0  0  0  0  0  0  0  0  0
   21.4645   21.1186   23.4278 H   0  0  0  0  0  0  0  0  0  0  0  0
   21.0355   19.0242   23.9154 C   0  0  0  0  0  0  0  0  0  0  0  0
   21.8719   18.4202   24.2935 H   0  0  0  0  0  0  0  0  0  0  0  0
   20.5899   19.4814   24.8090 H   0  0  0  0  0  0  0  0  0  0  0  0
   20.0137   18.0591   23.2619 C   0  0  0  0  0  0  0  0  0  0  0  0
   19.8296   17.2276   23.9558 H   0  0  0  0  0  0  0  0  0  0  0  0
   20.4624   17.5870   22.3790 H   0  0  0  0  0  0  0  0  0  0  0  0
   18.6384   18.6764   22.8846 C   0  0  0  0  0  0  0  0  0  0  0  0
   18.1811   18.0476   22.1099 H   0  0  0  0  0  0  0  0  0  0  0  0
   17.9721   18.5963   23.7539 H   0  0  0  0  0  0  0  0  0  0  0  0
   18.6037   20.1483   22.4046 C   0  0  0  0  0  0  0  0  0  0  0  0
   17.6053   20.3217   21.9781 H   0  0  0  0  0  0  0  0  0  0  0  0
   19.6324   20.5380   21.3146 C   0  0  0  0  0  0  0  0  0  0  0  0
   19.2925   20.1293   20.3543 H   0  0  0  0  0  0  0  0  0  0  0  0
   19.5917   21.6290   21.1962 H   0  0  0  0  0  0  0  0  0  0  0  0
   21.1152   20.1218   21.5217 C   0  0  0  0  0  0  0  0  0  0  0  0
   21.2897   19.1366   21.0718 H   0  0  0  0  0  0  0  0  0  0  0  0
   21.7417   20.8078   20.9355 H   0  0  0  0  0  0  0  0  0  0  0  0
   18.7394   21.0159   23.5191 O   0  0  0  0  0  0  0  0  0  0  0  0
   19.6361   20.8246   23.8599 H   0  0  0  0  0  0  0  0  0  0  0  0
  1  2  1  0  0  0  0
  1  3  1  0  0  0  0
  1  4  1  0  0  0  0
  4  5  1  0  0  0  0
  4  6  1  0  0  0  0
  4  7  1  0  0  0  0
  7  8  1  0  0  0  0
  7  9  1  0  0  0  0
  7 10  1  0  0  0  0
 10 11  1  0  0  0  0
 10 12  1  0  0  0  0
 10 13  1  0  0  0  0
 13 14  1  0  0  0  0
 13 15  1  0  0  0  0
 15 16  1  0  0  0  0
 15 17  1  0  0  0  0
  1 18  1  0  0  0  0
 15 18  1  0  0  0  0
 18 19  1  0  0  0  0
 18 20  1  0  0  0  0
 13 21  1  0  0  0  0
 21 22  1  0  0  0  0
M  END
> <VConfSearch Rank>
560

> <Conf_Id>
98

> <Delta U+W>
0.930

> <U+W>
7.353

> <U>
8.455

> <W>
-1.102

> <W(PB)>
-3.101

> <W(SA)>
2.000

> <Valence>
15.601

> <Coulomb>
-10.573

> <VdW>
3.427

> <VdW6>
-11.360

> <VdW12>
14.787

> <Bond>
0.471

> <Angle>
5.445

> <Pdih>
9.685

> <Idih>
0.000

> <Tether>
0.000

$$$$
VeraChem MOL file


 22 22  0  0  0  0  0  0  0  0999 V2000     
   18.9132   19.8260   23.9409 C   0  0  0  0  0  0  0  0  0  0  0  0
   19.7493   19.6475   24.6292 H   0  0  0  0  0  0  0  0  0  0  0  0
   18.0663   20.0981   24.5855 H   0  0  0  0  0  0  0  0  0  0  0  0
   18.5619   18.5152   23.1921 C   0  0  0  0  0  0  0  0  0  0  0  0
   18.2982   17.7631   23.9482 H   0  0  0  0  0  0  0  0  0  0  0  0
   17.6536   18.6660   22.5932 H   0  0  0  0  0  0  0  0  0  0  0  0
   19.6771   17.9212   22.2877 C   0  0  0  0  0  0  0  0  0  0  0  0
   19.4588   18.1328   21.2329 H   0  0  0  0  0  0  0  0  0  0  0  0
   19.6382   16.8265   22.3703 H   0  0  0  0  0  0  0  0  0  0  0  0
   21.1165   18.3941   22.6229 C   0  0  0  0  0  0  0  0  0  0  0  0
   21.3064   18.2388   23.6922 H   0  0  0  0  0  0  0  0  0  0  0  0
   21.8258   17.7294   22.1115 H   0  0  0  0  0  0  0  0  0  0  0  0
   21.4513   19.8688   22.2530 C   0  0  0  0  0  0  0  0  0  0  0  0
   21.9669   20.3245   23.1107 H   0  0  0  0  0  0  0  0  0  0  0  0
   20.2428   20.7653   21.8838 C   0  0  0  0  0  0  0  0  0  0  0  0
   20.6150   21.7346   21.5276 H   0  0  0  0  0  0  0  0  0  0  0  0
   19.7100   20.3327   21.0285 H   0  0  0  0  0  0  0  0  0  0  0  0
   19.2404   21.0353   23.0336 C   0  0  0  0  0  0  0  0  0  0  0  0
   19.6352   21.8410   23.6675 H   0  0  0  0  0  0  0  0  0  0  0  0
   18.3087   21.4227   22.5995 H   0  0  0  0  0  0  0  0  0  0  0  0
   22.3351   19.8642   21.1377 O   0  0  0  0  0  0  0  0  0  0  0  0
   22.5744   20.7981   20.9628 H   0  0  0  0  0  0  0  0  0  0  0  0
  1  2  1  0  0  0  0
  1  3  1  0  0  0  0
  1  4  1  0  0  0  0
  4  5  1  0  0  0  0
  4  6  1  0  0  0  0
  4  7  1  0  0  0  0
  7  8  1  0  0  0  0
  7  9  1  0  0  0  0
  7 10  1  0  0  0  0
 10 11  1  0  0  0  0
 10 12  1  0  0  0  0
 10 13  1  0  0  0  0
 13 14  1  0  0  0  0
 13 15  1  0  0  0  0
 15 16  1  0  0  0  0
 15 17  1  0  0  0  0
  1 18  1  0  0  0  0
 15 18  1  0  0  0  0
 18 19  1  0  0  0  0
 18 20  1  0  0  0  0
 13 21  1  0  0  0  0
 21 22  1  0  0  0  0
M  END
> <VConfSearch Rank>
561

> <Conf_Id>
141

> <Delta U+W>
0.000

> <U+W>
6.423

> <U>
8.781

> <W>
-2.358

> <W(PB)>
-4.373

> <W(SA)>
2.015

> <Valence>
13.328

> <Coulomb>
-8.387

> <VdW>
3.840

> <VdW6>
-9.744

> <VdW12>
13.584

> <Bond>
0.436

> <Angle>
3.478

> <Pdih>
9.415

> <Idih>
0.000

> <Tether>
0.000

$$$$
VeraChem MOL file


 22 22  0  0  0  0  0  0  0  0999 V2000     
   18.3812   19.1354   23.1710 C   0  0  0  0  0  0  0  0  0  0  0  0
   18.2326   18.6649   22.1897 H   0  0  0  0  0  0  0  0  0  0  0  0
   17.4726   18.9225   23.7507 H   0  0  0  0  0  0  0  0  0  0  0  0
   18.5023   20.6725   23.0353 C   0  0  0  0  0  0  0  0  0  0  0  0
   17.5264   21.0748   22.7311 H   0  0  0  0  0  0  0  0  0  0  0  0
   18.7111   21.1098   24.0213 H   0  0  0  0  0  0  0  0  0  0  0  0
   19.5629   21.1635   22.0233 C   0  0  0  0  0  0  0  0  0  0  0  0
   19.5982   22.2605   22.0694 H   0  0  0  0  0  0  0  0  0  0  0  0
   19.2362   20.9169   21.0038 H   0  0  0  0  0  0  0  0  0  0  0  0
   20.9915   20.6131   22.2542 C   0  0  0  0  0  0  0  0  0  0  0  0
   21.6789   21.2029   21.6336 H   0  0  0  0  0  0  0  0  0  0  0  0
   21.3049   20.7733   23.2940 H   0  0  0  0  0  0  0  0  0  0  0  0
   21.1251   19.1217   21.8724 C   0  0  0  0  0  0  0  0  0  0  0  0
   20.4482   18.9202   21.0298 H   0  0  0  0  0  0  0  0  0  0  0  0
   20.7873   18.1344   23.0127 C   0  0  0  0  0  0  0  0  0  0  0  0
   20.6022   17.1530   22.5571 H   0  0  0  0  0  0  0  0  0  0  0  0
   21.6686   18.0062   23.6553 H   0  0  0  0  0  0  0  0  0  0  0  0
   19.5807   18.5004   23.9127 C   0  0  0  0  0  0  0  0  0  0  0  0
   19.2438   17.5848   24.4176 H   0  0  0  0  0  0  0  0  0  0  0  0
   19.9118   19.1736   24.7152 H   0  0  0  0  0  0  0  0  0  0  0  0
   22.4623   18.8732   21.4559 O   0  0  0  0  0  0  0  0  0  0  0  0
   22.6305   19.4547   20.6850 H   0  0  0  0  0  0  0  0  0  0  0  0
  1  2  1  0  0  0  0
  1  3  1  0  0  0  0
  1  4  1  0  0  0  0
  4  5  1  0  0  0  0
  4  6  1  0  0  0  0
  4  7  1  0  0  0  0
  7  8  1  0  0  0  0
  7  9  1  0  0  0  0
  7 10  1  0  0  0  0
 10 11  1  0  0  0  0
 10 12  1  0  0  0  0
 10 13  1  0  0  0  0
 13 14  1  0  0  0  0
 13 15  1  0  0  0  0
 15 16  1  0  0  0  0
 15 17  1  0  0  0  0
  1 18  1  0  0  0  0
 15 18  1  0  0  0  0
 18 19  1  0  0  0  0
 18 20  1  0  0  0  0
 13 21  1  0  0  0  0
 21 22  1  0  0  0  0
M  END
> <VConfSearch Rank>
562

> <Conf_Id>
144

> <Delta U+W>
-3.291

> <U+W>
3.132

> <U>
5.411

> <W>
-2.279

> <W(PB)>
-4.300

> <W(SA)>
2.021

> <Valence>
11.909

> <Coulomb>
-8.733

> <VdW>
2.236

> <VdW6>
-8.936

> <VdW12>
11.172

> <Bond>
0.223

> <Angle>
2.457

> <Pdih>
9.228

> <Idih>
0.000

> <Tether>
0.000

$$$$
VeraChem MOL file


 22 22  0  0  0  0  0  0  0  0999 V2000     
   20.8631   19.4192   21.1929 C   0  0  0  0  0  0  0  0  0  0  0  0
   21.1833   19.3764   20.1429 H   0  0  0  0  0  0  0  0  0  0  0  0
   21.7734   19.2889   21.7938 H   0  0  0  0  0  0  0  0  0  0  0  0
   19.8704   18.2587   21.4378 C   0  0  0  0  0  0  0  0  0  0  0  0
   18.8680   18.5582   21.1026 H   0  0  0  0  0  0  0  0  0  0  0  0
   20.1513   17.4100   20.7992 H   0  0  0  0  0  0  0  0  0  0  0  0
   19.7997   17.7527   22.8990 C   0  0  0  0  0  0  0  0  0  0  0  0
   20.6126   17.0333   23.0678 H   0  0  0  0  0  0  0  0  0  0  0  0
   18.8678   17.1833   23.0193 H   0  0  0  0  0  0  0  0  0  0  0  0
   19.8758   18.8343   24.0047 C   0  0  0  0  0  0  0  0  0  0  0  0
   19.4876   18.3936   24.9328 H   0  0  0  0  0  0  0  0  0  0  0  0
   20.9287   19.0712   24.2053 H   0  0  0  0  0  0  0  0  0  0  0  0
   19.1090   20.1392   23.6935 C   0  0  0  0  0  0  0  0  0  0  0  0
   18.2047   19.9055   23.1136 H   0  0  0  0  0  0  0  0  0  0  0  0
   19.9709   21.1629   22.9201 C   0  0  0  0  0  0  0  0  0  0  0  0
   19.4710   22.1402   22.9538 H   0  0  0  0  0  0  0  0  0  0  0  0
   20.9315   21.2957   23.4344 H   0  0  0  0  0  0  0  0  0  0  0  0
   20.2342   20.8121   21.4364 C   0  0  0  0  0  0  0  0  0  0  0  0
   19.2955   20.8924   20.8712 H   0  0  0  0  0  0  0  0  0  0  0  0
   20.9024   21.5763   21.0165 H   0  0  0  0  0  0  0  0  0  0  0  0
   18.7234   20.7353   24.9248 O   0  0  0  0  0  0  0  0  0  0  0  0
   19.5519   20.9262   25.4111 H   0  0  0  0  0  0  0  0  0  0  0  0
  1  2  1  0  0  0  0
  1  3  1  0  0  0  0
  1  4  1  0  0  0  0
  4  5  1  0  0  0  0
  4  6  1  0  0  0  0
  4  7  1  0  0  0  0
  7  8  1  0  0  0  0
  7  9  1  0  0  0  0
  7 10  1  0  0  0  0
 10 11  1  0  0  0  0
 10 12  1  0  0  0  0
 10 13  1  0  0  0  0
 13 14  1  0  0  0  0
 13 15  1  0  0  0  0
 15 16  1  0  0  0  0
 15 17  1  0  0  0  0
  1 18  1  0  0  0  0
 15 18  1  0  0  0  0
 18 19  1  0  0  0  0
 18 20  1  0  0  0  0
 13 21  1  0  0  0  0
 21 22  1  0  0  0  0
M  END
> <VConfSearch Rank>
563

> <Conf_Id>
76

> <Delta U+W>
-3.175

> <U+W>
3.248

> <U>
5.336

> <W>
-2.088

> <W(PB)>
-4.098

> <W(SA)>
2.010

> <Valence>
12.390

> <Coulomb>
-9.270

> <VdW>
2.216

> <VdW6>
-8.967

> <VdW12>
11.183

> <Bond>
0.218

> <Angle>
2.426

> <Pdih>
9.745

> <Idih>
0.000

> <Tether>
0.000

$$$$
VeraChem MOL file


 22 22  0  0  0  0  0  0  0  0999 V2000     
   20.8271   20.5893   24.0581 C   0  0  0  0  0  0  0  0  0  0  0  0
   21.4627   20.2360   24.8815 H   0  0  0  0  0  0  0  0  0  0  0  0
   20.7944   21.6830   24.1549 H   0  0  0  0  0  0  0  0  0  0  0  0
   19.4022   20.0242   24.2699 C   0  0  0  0  0  0  0  0  0  0  0  0
   19.4681   19.0101   24.6865 H   0  0  0  0  0  0  0  0  0  0  0  0
   18.9092   20.6281   25.0439 H   0  0  0  0  0  0  0  0  0  0  0  0
   18.5116   20.0042   23.0057 C   0  0  0  0  0  0  0  0  0  0  0  0
   18.6902   20.8923   22.3843 H   0  0  0  0  0  0  0  0  0  0  0  0
   17.4628   20.0626   23.3264 H   0  0  0  0  0  0  0  0  0  0  0  0
   18.6793   18.7070   22.1742 C   0  0  0  0  0  0  0  0  0  0  0  0
   18.5667   17.8379   22.8349 H   0  0  0  0  0  0  0  0  0  0  0  0
   17.8506   18.6413   21.4570 H   0  0  0  0  0  0  0  0  0  0  0  0
   20.0023   18.5662   21.3876 C   0  0  0  0  0  0  0  0  0  0  0  0
   20.0387   17.5338   21.0107 H   0  0  0  0  0  0  0  0  0  0  0  0
   21.2904   18.7938   22.2180 C   0  0  0  0  0  0  0  0  0  0  0  0
   21.3112   18.1016   23.0696 H   0  0  0  0  0  0  0  0  0  0  0  0
   22.1443   18.5134   21.5880 H   0  0  0  0  0  0  0  0  0  0  0  0
   21.5081   20.2479   22.7112 C   0  0  0  0  0  0  0  0  0  0  0  0
   22.5862   20.4252   22.8242 H   0  0  0  0  0  0  0  0  0  0  0  0
   21.1754   20.9597   21.9443 H   0  0  0  0  0  0  0  0  0  0  0  0
   19.9794   19.4464   20.2683 O   0  0  0  0  0  0  0  0  0  0  0  0
   20.8512   19.3638   19.8307 H   0  0  0  0  0  0  0  0  0  0  0  0
  1  2  1  0  0  0  0
  1  3  1  0  0  0  0
  1  4  1  0  0  0  0
  4  5  1  0  0  0  0
  4  6  1  0  0  0  0
  4  7  1  0  0  0  0
  7  8  1  0  0  0  0
  7  9  1  0  0  0  0
  7 10  1  0  0  0  0
 10 11  1  0  0  0  0
 10 12  1  0  0  0  0
 10 13  1  0  0  0  0
 13 14  1  0  0  0  0
 13 15  1  0  0  0  0
 15 16  1  0  0  0  0
 15 17  1  0  0  0  0
  1 18  1  0  0  0  0
 15 18  1  0  0  0  0
 18 19  1  0  0  0  0
 18 20  1  0  0  0  0
 13 21  1  0  0  0  0
 21 22  1  0  0  0  0
M  END
> <VConfSearch Rank>
564

> <Conf_Id>
95

> <Delta U+W>
-2.289

> <U+W>
4.134

> <U>
6.373

> <W>
-2.240

> <W(PB)>
-4.254

> <W(SA)>
2.015

> <Valence>
12.093

> <Coulomb>
-8.058

> <VdW>
2.339

> <VdW6>
-9.683

> <VdW12>
12.022

> <Bond>
0.268

> <Angle>
3.005

> <Pdih>
8.820

> <Idih>
0.000

> <Tether>
0.000

$$$$
VeraChem MOL file


 22 22  0  0  0  0  0  0  0  0999 V2000     
   20.7823   20.1998   24.3752 C   0  0  0  0  0  0  0  0  0  0  0  0
   20.2474   20.5866   25.2533 H   0  0  0  0  0  0  0  0  0  0  0  0
   21.8422   20.1677   24.6622 H   0  0  0  0  0  0  0  0  0  0  0  0
   20.6073   21.2116   23.2175 C   0  0  0  0  0  0  0  0  0  0  0  0
   19.6009   21.6492   23.2631 H   0  0  0  0  0  0  0  0  0  0  0  0
   21.2987   22.0476   23.3901 H   0  0  0  0  0  0  0  0  0  0  0  0
   20.8558   20.6383   21.8029 C   0  0  0  0  0  0  0  0  0  0  0  0
   21.6844   19.9171   21.8109 H   0  0  0  0  0  0  0  0  0  0  0  0
   21.1761   21.4636   21.1528 H   0  0  0  0  0  0  0  0  0  0  0  0
   19.5824   20.0129   21.1795 C   0  0  0  0  0  0  0  0  0  0  0  0
   18.7530   20.7268   21.2651 H   0  0  0  0  0  0  0  0  0  0  0  0
   19.7459   19.8848   20.1016 H   0  0  0  0  0  0  0  0  0  0  0  0
   19.1303   18.6568   21.7680 C   0  0  0  0  0  0  0  0  0  0  0  0
   18.1367   18.4437   21.3480 H   0  0  0  0  0  0  0  0  0  0  0  0
   18.9880   18.6238   23.3104 C   0  0  0  0  0  0  0  0  0  0  0  0
   18.2805   19.3963   23.6379 H   0  0  0  0  0  0  0  0  0  0  0  0
   18.5259   17.6634   23.5729 H   0  0  0  0  0  0  0  0  0  0  0  0
   20.3179   18.7500   24.0984 C   0  0  0  0  0  0  0  0  0  0  0  0
   20.2043   18.2418   25.0654 H   0  0  0  0  0  0  0  0  0  0  0  0
   21.1144   18.2039   23.5760 H   0  0  0  0  0  0  0  0  0  0  0  0
   20.0228   17.6338   21.3369 O   0  0  0  0  0  0  0  0  0  0  0  0
   20.0892   17.7102   20.3633 H   0  0  0  0  0  0  0  0  0  0  0  0
  1  2  1  0  0  0  0
  1  3  1  0  0  0  0
  1  4  1  0  0  0  0
  4  5  1  0  0  0  0
  4  6  1  0  0  0  0
  4  7  1  0  0  0  0
  7  8  1  0  0  0  0
  7  9  1  0  0  0  0
  7 10  1  0  0  0  0
 10 11  1  0  0  0  0
 10 12  1  0  0  0  0
 10 13  1  0  0  0  0
 13 14  1  0  0  0  0
 13 15  1  0  0  0  0
 15 16  1  0  0  0  0
 15 17  1  0  0  0  0
  1 18  1  0  0  0  0
 15 18  1  0  0  0  0
 18 19  1  0  0  0  0
 18 20  1  0  0  0  0
 13 21  1  0  0  0  0
 21 22  1  0  0  0  0
M  END
> <VConfSearch Rank>
565

> <Conf_Id>
41

> <Delta U+W>
-2.114

> <U+W>
4.310

> <U>
6.598

> <W>
-2.289

> <W(PB)>
-4.294

> <W(SA)>
2.005

> <Valence>
12.082

> <Coulomb>
-7.801

> <VdW>
2.317

> <VdW6>
-9.658

> <VdW12>
11.975

> <Bond>
0.267

> <Angle>
3.051

> <Pdih>
8.764

> <Idih>
0.000

> <Tether>
0.000

$$$$
VeraChem MOL file


 22 22  0  0  0  0  0  0  0  0999 V2000     
   21.1722   20.0715   21.5701 C   0  0  0  0  0  0  0  0  0  0  0  0
   21.9993   20.1899   20.8570 H   0  0  0  0  0  0  0  0  0  0  0  0
   20.4087   20.8068   21.2810 H   0  0  0  0  0  0  0  0  0  0  0  0
   21.7175   20.3766   22.9832 C   0  0  0  0  0  0  0  0  0  0  0  0
   22.4322   19.5962   23.2778 H   0  0  0  0  0  0  0  0  0  0  0  0
   22.2923   21.3117   22.9431 H   0  0  0  0  0  0  0  0  0  0  0  0
   20.6341   20.5214   24.0743 C   0  0  0  0  0  0  0  0  0  0  0  0
   20.0490   21.4322   23.8897 H   0  0  0  0  0  0  0  0  0  0  0  0
   21.1409   20.6872   25.0344 H   0  0  0  0  0  0  0  0  0  0  0  0
   19.6846   19.3023   24.2275 C   0  0  0  0  0  0  0  0  0  0  0  0
   20.2699   18.3802   24.3346 H   0  0  0  0  0  0  0  0  0  0  0  0
   19.1423   19.4207   25.1743 H   0  0  0  0  0  0  0  0  0  0  0  0
   18.6224   19.1247   23.1121 C   0  0  0  0  0  0  0  0  0  0  0  0
   17.8541   18.4478   23.5132 H   0  0  0  0  0  0  0  0  0  0  0  0
   19.1246   18.4753   21.7963 C   0  0  0  0  0  0  0  0  0  0  0  0
   18.9085   17.4002   21.8453 H   0  0  0  0  0  0  0  0  0  0  0  0
   18.5228   18.8522   20.9589 H   0  0  0  0  0  0  0  0  0  0  0  0
   20.6235   18.6334   21.4397 C   0  0  0  0  0  0  0  0  0  0  0  0
   21.2267   17.9486   22.0509 H   0  0  0  0  0  0  0  0  0  0  0  0
   20.7588   18.2987   20.4022 H   0  0  0  0  0  0  0  0  0  0  0  0
   17.9913   20.3692   22.8222 O   0  0  0  0  0  0  0  0  0  0  0  0
   17.3081   20.1888   22.1451 H   0  0  0  0  0  0  0  0  0  0  0  0
  1  2  1  0  0  0  0
  1  3  1  0  0  0  0
  1  4  1  0  0  0  0
  4  5  1  0  0  0  0
  4  6  1  0  0  0  0
  4  7  1  0  0  0  0
  7  8  1  0  0  0  0
  7  9  1  0  0  0  0
  7 10  1  0  0  0  0
 10 11  1  0  0  0  0
 10 12  1  0  0  0  0
 10 13  1  0  0  0  0
 13 14  1  0  0  0  0
 13 15  1  0  0  0  0
 15 16  1  0  0  0  0
 15 17  1  0  0  0  0
  1 18  1  0  0  0  0
 15 18  1  0  0  0  0
 18 19  1  0  0  0  0
 18 20  1  0  0  0  0
 13 21  1  0  0  0  0
 21 22  1  0  0  0  0
M  END
> <VConfSearch Rank>
566

> <Conf_Id>
104

> <Delta U+W>
-1.172

> <U+W>
5.252

> <U>
7.482

> <W>
-2.230

> <W(PB)>
-4.220

> <W(SA)>
1.990

> <Valence>
12.309

> <Coulomb>
-7.084

> <VdW>
2.258

> <VdW6>
-9.770

> <VdW12>
12.028

> <Bond>
0.284

> <Angle>
3.491

> <Pdih>
8.535

> <Idih>
0.000

> <Tether>
0.000

$$$$
VeraChem MOL file


 22 22  0  0  0  0  0  0  0  0999 V2000     
   20.8909   20.7682   23.4615 C   0  0  0  0  0  0  0  0  0  0  0  0
   21.5792   20.0558   23.9360 H   0  0  0  0  0  0  0  0  0  0  0  0
   21.1789   21.7607   23.8343 H   0  0  0  0  0  0  0  0  0  0  0  0
   19.4326   20.5031   23.9005 C   0  0  0  0  0  0  0  0  0  0  0  0
   19.2824   20.9387   24.8980 H   0  0  0  0  0  0  0  0  0  0  0  0
   18.7488   21.0561   23.2434 H   0  0  0  0  0  0  0  0  0  0  0  0
   19.0120   19.0131   23.9681 C   0  0  0  0  0  0  0  0  0  0  0  0
   17.9226   18.9530   23.8383 H   0  0  0  0  0  0  0  0  0  0  0  0
   19.2048   18.6435   24.9846 H   0  0  0  0  0  0  0  0  0  0  0  0
   19.6980   18.0344   22.9767 C   0  0  0  0  0  0  0  0  0  0  0  0
   20.6972   17.7824   23.3548 H   0  0  0  0  0  0  0  0  0  0  0  0
   19.1384   17.0901   22.9911 H   0  0  0  0  0  0  0  0  0  0  0  0
   19.8251   18.4952   21.5065 C   0  0  0  0  0  0  0  0  0  0  0  0
   19.9465   17.5927   20.8904 H   0  0  0  0  0  0  0  0  0  0  0  0
   21.0707   19.3759   21.2591 C   0  0  0  0  0  0  0  0  0  0  0  0
   21.9617   18.8249   21.5873 H   0  0  0  0  0  0  0  0  0  0  0  0
   21.1871   19.5072   20.1754 H   0  0  0  0  0  0  0  0  0  0  0  0
   21.0721   20.7743   21.9249 C   0  0  0  0  0  0  0  0  0  0  0  0
   22.0315   21.2563   21.6927 H   0  0  0  0  0  0  0  0  0  0  0  0
   20.3039   21.4081   21.4615 H   0  0  0  0  0  0  0  0  0  0  0  0
   18.6521   19.1801   21.0954 O   0  0  0  0  0  0  0  0  0  0  0  0
   18.5673   19.9139   21.7363 H   0  0  0  0  0  0  0  0  0  0  0  0
  1  2  1  0  0  0  0
  1  3  1  0  0  0  0
  1  4  1  0  0  0  0
  4  5  1  0  0  0  0
  4  6  1  0  0  0  0
  4  7  1  0  0  0  0
  7  8  1  0  0  0  0
  7  9  1  0  0  0  0
  7 10  1  0  0  0  0
 10 11  1  0  0  0  0
 10 12  1  0  0  0  0
 10 13  1  0  0  0  0
 13 14  1  0  0  0  0
 13 15  1  0  0  0  0
 15 16  1  0  0  0  0
 15 17  1  0  0  0  0
  1 18  1  0  0  0  0
 15 18  1  0  0  0  0
 18 19  1  0  0  0  0
 18 20  1  0  0  0  0
 13 21  1  0  0  0  0
 21 22  1  0  0  0  0
M  END
> <VConfSearch Rank>
567

> <Conf_Id>
99

> <Delta U+W>
-3.852

> <U+W>
2.572

> <U>
3.922

> <W>
-1.350

> <W(PB)>
-3.345

> <W(SA)>
1.995

> <Valence>
12.571

> <Coulomb>
-10.581

> <VdW>
1.932

> <VdW6>
-10.483

> <VdW12>
12.415

> <Bond>
0.268

> <Angle>
3.728

> <Pdih>
8.575

> <Idih>
0.000

> <Tether>
0.000

$$$$
VeraChem MOL file


 22 22  0  0  0  0  0  0  0  0999 V2000     
   18.5774   19.6907   23.4036 C   0  0  0  0  0  0  0  0  0  0  0  0
   17.5192   19.9863   23.4053 H   0  0  0  0  0  0  0  0  0  0  0  0
   18.7330   19.1899   24.3685 H   0  0  0  0  0  0  0  0  0  0  0  0
   19.4352   20.9878   23.3280 C   0  0  0  0  0  0  0  0  0  0  0  0
   18.7483   21.8448   23.2972 H   0  0  0  0  0  0  0  0  0  0  0  0
   20.0079   21.1174   24.2561 H   0  0  0  0  0  0  0  0  0  0  0  0
   20.3877   21.1020   22.1104 C   0  0  0  0  0  0  0  0  0  0  0  0
   20.7797   22.1274   22.0723 H   0  0  0  0  0  0  0  0  0  0  0  0
   19.8154   20.9910   21.1810 H   0  0  0  0  0  0  0  0  0  0  0  0
   21.5994   20.1292   22.0997 C   0  0  0  0  0  0  0  0  0  0  0  0
   21.9468   20.0255   21.0637 H   0  0  0  0  0  0  0  0  0  0  0  0
   22.4303   20.6043   22.6381 H   0  0  0  0  0  0  0  0  0  0  0  0
   21.4065   18.7130   22.6959 C   0  0  0  0  0  0  0  0  0  0  0  0
   22.2801   18.1177   22.3941 H   0  0  0  0  0  0  0  0  0  0  0  0
   20.1503   17.9378   22.2277 C   0  0  0  0  0  0  0  0  0  0  0  0
   20.3266   17.5749   21.2069 H   0  0  0  0  0  0  0  0  0  0  0  0
   20.0694   17.0344   22.8468 H   0  0  0  0  0  0  0  0  0  0  0  0
   18.7818   18.6735   22.2520 C   0  0  0  0  0  0  0  0  0  0  0  0
   18.6093   19.1666   21.2873 H   0  0  0  0  0  0  0  0  0  0  0  0
   17.9924   17.9124   22.3179 H   0  0  0  0  0  0  0  0  0  0  0  0
   21.4196   18.7871   24.1128 O   0  0  0  0  0  0  0  0  0  0  0  0
   20.6296   19.3221   24.3288 H   0  0  0  0  0  0  0  0  0  0  0  0
  1  2  1  0  0  0  0
  1  3  1  0  0  0  0
  1  4  1  0  0  0  0
  4  5  1  0  0  0  0
  4  6  1  0  0  0  0
  4  7  1  0  0  0  0
  7  8  1  0  0  0  0
  7  9  1  0  0  0  0
  7 10  1  0  0  0  0
 10 11  1  0  0  0  0
 10 12  1  0  0  0  0
 10 13  1  0  0  0  0
 13 14  1  0  0  0  0
 13 15  1  0  0  0  0
 15 16  1  0  0  0  0
 15 17  1  0  0  0  0
  1 18  1  0  0  0  0
 15 18  1  0  0  0  0
 18 19  1  0  0  0  0
 18 20  1  0  0  0  0
 13 21  1  0  0  0  0
 21 22  1  0  0  0  0
M  END
> <VConfSearch Rank>
568

> <Conf_Id>
98

> <Delta U+W>
0.930

> <U+W>
7.353

> <U>
8.455

> <W>
-1.102

> <W(PB)>
-3.101

> <W(SA)>
2.000

> <Valence>
15.601

> <Coulomb>
-10.573

> <VdW>
3.427

> <VdW6>
-11.360

> <VdW12>
14.787

> <Bond>
0.471

> <Angle>
5.445

> <Pdih>
9.685

> <Idih>
0.000

> <Tether>
0.000

$$$$
VeraChem MOL file


 22 22  0  0  0  0  0  0  0  0999 V2000     
   19.2253   21.0593   22.7071 C   0  0  0  0  0  0  0  0  0  0  0  0
   19.7340   21.2967   21.7638 H   0  0  0  0  0  0  0  0  0  0  0  0
   18.5862   21.9287   22.9130 H   0  0  0  0  0  0  0  0  0  0  0  0
   20.2677   20.9323   23.8470 C   0  0  0  0  0  0  0  0  0  0  0  0
   20.8011   21.8902   23.9155 H   0  0  0  0  0  0  0  0  0  0  0  0
   19.7491   20.8113   24.8077 H   0  0  0  0  0  0  0  0  0  0  0  0
   21.3223   19.8018   23.6902 C   0  0  0  0  0  0  0  0  0  0  0  0
   21.0691   18.9575   24.3444 H   0  0  0  0  0  0  0  0  0  0  0  0
   22.2833   20.1750   24.0695 H   0  0  0  0  0  0  0  0  0  0  0  0
   21.5256   19.2894   22.2397 C   0  0  0  0  0  0  0  0  0  0  0  0
   21.7153   20.1446   21.5792 H   0  0  0  0  0  0  0  0  0  0  0  0
   22.4513   18.6991   22.2091 H   0  0  0  0  0  0  0  0  0  0  0  0
   20.3640   18.4363   21.6508 C   0  0  0  0  0  0  0  0  0  0  0  0
   20.1572   18.8012   20.6344 H   0  0  0  0  0  0  0  0  0  0  0  0
   19.0372   18.4554   22.4503 C   0  0  0  0  0  0  0  0  0  0  0  0
   18.3446   17.7280   22.0072 H   0  0  0  0  0  0  0  0  0  0  0  0
   19.2156   18.0943   23.4703 H   0  0  0  0  0  0  0  0  0  0  0  0
   18.3151   19.8248   22.5063 C   0  0  0  0  0  0  0  0  0  0  0  0
   17.7483   19.9660   21.5760 H   0  0  0  0  0  0  0  0  0  0  0  0
   17.5690   19.7924   23.3118 H   0  0  0  0  0  0  0  0  0  0  0  0
   20.7947   17.0822   21.5718 O   0  0  0  0  0  0  0  0  0  0  0  0
   20.0693   16.5793   21.1462 H   0  0  0  0  0  0  0  0  0  0  0  0
  1  2  1  0  0  0  0
  1  3  1  0  0  0  0
  1  4  1  0  0  0  0
  4  5  1  0  0  0  0
  4  6  1  0  0  0  0
  4  7  1  0  0  0  0
  7  8  1  0  0  0  0
  7  9  1  0  0  0  0
  7 10  1  0  0  0  0
 10 11  1  0  0  0  0
 10 12  1  0  0  0  0
 10 13  1  0  0  0  0
 13 14  1  0  0  0  0
 13 15  1  0  0  0  0
 15 16  1  0  0  0  0
 15 17  1  0  0  0  0
  1 18  1  0  0  0  0
 15 18  1  0  0  0  0
 18 19  1  0  0  0  0
 18 20  1  0  0  0  0
 13 21  1  0  0  0  0
 21 22  1  0  0  0  0
M  END
> <VConfSearch Rank>
569

> <Conf_Id>
141

> <Delta U+W>
0.000

> <U+W>
6.423

> <U>
8.781

> <W>
-2.358

> <W(PB)>
-4.373

> <W(SA)>
2.015

> <Valence>
13.328

> <Coulomb>
-8.387

> <VdW>
3.840

> <VdW6>
-9.744

> <VdW12>
13.584

> <Bond>
0.436

> <Angle>
3.478

> <Pdih>
9.415

> <Idih>
0.000

> <Tether>
0.000

$$$$
VeraChem MOL file


 22 22  0  0  0  0  0  0  0  0999 V2000     
   21.2787   20.3270   23.5916 C   0  0  0  0  0  0  0  0  0  0  0  0
   21.3951   21.0845   22.8046 H   0  0  0  0  0  0  0  0  0  0  0  0
   21.9933   20.5971   24.3811 H   0  0  0  0  0  0  0  0  0  0  0  0
   21.6650   18.9222   23.0692 C   0  0  0  0  0  0  0  0  0  0  0  0
   22.7482   18.9022   22.8870 H   0  0  0  0  0  0  0  0  0  0  0  0
   21.4810   18.1779   23.8560 H   0  0  0  0  0  0  0  0  0  0  0  0
   20.9496   18.4817   21.7714 C   0  0  0  0  0  0  0  0  0  0  0  0
   21.2553   17.4511   21.5448 H   0  0  0  0  0  0  0  0  0  0  0  0
   21.3087   19.0922   20.9316 H   0  0  0  0  0  0  0  0  0  0  0  0
   19.4033   18.5379   21.8255 C   0  0  0  0  0  0  0  0  0  0  0  0
   19.0205   17.9926   20.9527 H   0  0  0  0  0  0  0  0  0  0  0  0
   19.0270   18.0044   22.7080 H   0  0  0  0  0  0  0  0  0  0  0  0
   18.8574   19.9831   21.7932 C   0  0  0  0  0  0  0  0  0  0  0  0
   19.5378   20.5944   21.1831 H   0  0  0  0  0  0  0  0  0  0  0  0
   18.7205   20.6488   23.1815 C   0  0  0  0  0  0  0  0  0  0  0  0
   18.6440   21.7323   23.0232 H   0  0  0  0  0  0  0  0  0  0  0  0
   17.7696   20.3438   23.6386 H   0  0  0  0  0  0  0  0  0  0  0  0
   19.8567   20.3736   24.1980 C   0  0  0  0  0  0  0  0  0  0  0  0
   19.8221   21.1581   24.9663 H   0  0  0  0  0  0  0  0  0  0  0  0
   19.6551   19.4333   24.7288 H   0  0  0  0  0  0  0  0  0  0  0  0
   17.5740   19.9747   21.1799 O   0  0  0  0  0  0  0  0  0  0  0  0
   17.6961   19.6197   20.2746 H   0  0  0  0  0  0  0  0  0  0  0  0
  1  2  1  0  0  0  0
  1  3  1  0  0  0  0
  1  4  1  0  0  0  0
  4  5  1  0  0  0  0
  4  6  1  0  0  0  0
  4  7  1  0  0  0  0
  7  8  1  0  0  0  0
  7  9  1  0  0  0  0
  7 10  1  0  0  0  0
 10 11  1  0  0  0  0
 10 12  1  0  0  0  0
 10 13  1  0  0  0  0
 13 14  1  0  0  0  0
 13 15  1  0  0  0  0
 15 16  1  0  0  0  0
 15 17  1  0  0  0  0
  1 18  1  0  0  0  0
 15 18  1  0  0  0  0
 18 19  1  0  0  0  0
 18 20  1  0  0  0  0
 13 21  1  0  0  0  0
 21 22  1  0  0  0  0
M  END
> <VConfSearch Rank>
570

> <Conf_Id>
144

> <Delta U+W>
-3.291

> <U+W>
3.132

> <U>
5.411

> <W>
-2.279

> <W(PB)>
-4.300

> <W(SA)>
2.021

> <Valence>
11.909

> <Coulomb>
-8.733

> <VdW>
2.236

> <VdW6>
-8.936

> <VdW12>
11.172

> <Bond>
0.223

> <Angle>
2.457

> <Pdih>
9.228

> <Idih>
0.000

> <Tether>
0.000

$$$$
VeraChem MOL file


 22 22  0  0  0  0  0  0  0  0999 V2000     
   21.6362   19.3062   22.9073 C   0  0  0  0  0  0  0  0  0  0  0  0
   22.7138   19.4454   23.0694 H   0  0  0  0  0  0  0  0  0  0  0  0
   21.4685   18.2206   22.8945 H   0  0  0  0  0  0  0  0  0  0  0  0
   21.2726   19.9360   21.5423 C   0  0  0  0  0  0  0  0  0  0  0  0
   21.1312   21.0185   21.6653 H   0  0  0  0  0  0  0  0  0  0  0  0
   22.1284   19.8280   20.8619 H   0  0  0  0  0  0  0  0  0  0  0  0
   20.0313   19.3257   20.8476 C   0  0  0  0  0  0  0  0  0  0  0  0
   20.3360   18.4237   20.2994 H   0  0  0  0  0  0  0  0  0  0  0  0
   19.6830   20.0350   20.0843 H   0  0  0  0  0  0  0  0  0  0  0  0
   18.8434   18.9522   21.7681 C   0  0  0  0  0  0  0  0  0  0  0  0
   17.9481   18.8567   21.1390 H   0  0  0  0  0  0  0  0  0  0  0  0
   19.0163   17.9549   22.1930 H   0  0  0  0  0  0  0  0  0  0  0  0
   18.5655   19.9535   22.9117 C   0  0  0  0  0  0  0  0  0  0  0  0
   18.7906   20.9739   22.5705 H   0  0  0  0  0  0  0  0  0  0  0  0
   19.3835   19.6403   24.1853 C   0  0  0  0  0  0  0  0  0  0  0  0
   18.9633   20.2131   25.0228 H   0  0  0  0  0  0  0  0  0  0  0  0
   19.2596   18.5820   24.4492 H   0  0  0  0  0  0  0  0  0  0  0  0
   20.8930   19.9667   24.0932 C   0  0  0  0  0  0  0  0  0  0  0  0
   21.0278   21.0560   24.0470 H   0  0  0  0  0  0  0  0  0  0  0  0
   21.3711   19.6455   25.0287 H   0  0  0  0  0  0  0  0  0  0  0  0
   17.1869   19.8756   23.2486 O   0  0  0  0  0  0  0  0  0  0  0  0
   17.0260   18.9561   23.5446 H   0  0  0  0  0  0  0  0  0  0  0  0
  1  2  1  0  0  0  0
  1  3  1  0  0  0  0
  1  4  1  0  0  0  0
  4  5  1  0  0  0  0
  4  6  1  0  0  0  0
  4  7  1  0  0  0  0
  7  8  1  0  0  0  0
  7  9  1  0  0  0  0
  7 10  1  0  0  0  0
 10 11  1  0  0  0  0
 10 12  1  0  0  0  0
 10 13  1  0  0  0  0
 13 14  1  0  0  0  0
 13 15  1  0  0  0  0
 15 16  1  0  0  0  0
 15 17  1  0  0  0  0
  1 18  1  0  0  0  0
 15 18  1  0  0  0  0
 18 19  1  0  0  0  0
 18 20  1  0  0  0  0
 13 21  1  0  0  0  0
 21 22  1  0  0  0  0
M  END
> <VConfSearch Rank>
571

> <Conf_Id>
76

> <Delta U+W>
-3.175

> <U+W>
3.248

> <U>
5.336

> <W>
-2.088

> <W(PB)>
-4.098

> <W(SA)>
2.010

> <Valence>
12.390

> <Coulomb>
-9.270

> <VdW>
2.216

> <VdW6>
-8.967

> <VdW12>
11.183

> <Bond>
0.218

> <Angle>
2.426

> <Pdih>
9.745

> <Idih>
0.000

> <Tether>
0.000

$$$$
VeraChem MOL file


 22 22  0  0  0  0  0  0  0  0999 V2000     
   20.5461   17.8470   22.0852 C   0  0  0  0  0  0  0  0  0  0  0  0
   20.8748   17.5661   21.0754 H   0  0  0  0  0  0  0  0  0  0  0  0
   20.6332   16.9351   22.6915 H   0  0  0  0  0  0  0  0  0  0  0  0
   19.0565   18.2599   22.0119 C   0  0  0  0  0  0  0  0  0  0  0  0
   18.8688   18.7887   21.0676 H   0  0  0  0  0  0  0  0  0  0  0  0
   18.4525   17.3438   21.9604 H   0  0  0  0  0  0  0  0  0  0  0  0
   18.5583   19.1243   23.1935 C   0  0  0  0  0  0  0  0  0  0  0  0
   19.0188   18.8032   24.1377 H   0  0  0  0  0  0  0  0  0  0  0  0
   17.4790   18.9556   23.3081 H   0  0  0  0  0  0  0  0  0  0  0  0
   18.7768   20.6410   22.9614 C   0  0  0  0  0  0  0  0  0  0  0  0
   18.3706   20.9181   21.9802 H   0  0  0  0  0  0  0  0  0  0  0  0
   18.1792   21.1973   23.6955 H   0  0  0  0  0  0  0  0  0  0  0  0
   20.2355   21.1433   23.0560 C   0  0  0  0  0  0  0  0  0  0  0  0
   20.2378   22.1807   22.6915 H   0  0  0  0  0  0  0  0  0  0  0  0
   21.2601   20.3572   22.2001 C   0  0  0  0  0  0  0  0  0  0  0  0
   20.9512   20.3679   21.1469 H   0  0  0  0  0  0  0  0  0  0  0  0
   22.2105   20.9052   22.2352 H   0  0  0  0  0  0  0  0  0  0  0  0
   21.5232   18.8998   22.6606 C   0  0  0  0  0  0  0  0  0  0  0  0
   22.5409   18.6132   22.3631 H   0  0  0  0  0  0  0  0  0  0  0  0
   21.5144   18.8437   23.7571 H   0  0  0  0  0  0  0  0  0  0  0  0
   20.6418   21.1519   24.4209 O   0  0  0  0  0  0  0  0  0  0  0  0
   21.5819   21.4248   24.4303 H   0  0  0  0  0  0  0  0  0  0  0  0
  1  2  1  0  0  0  0
  1  3  1  0  0  0  0
  1  4  1  0  0  0  0
  4  5  1  0  0  0  0
  4  6  1  0  0  0  0
  4  7  1  0  0  0  0
  7  8  1  0  0  0  0
  7  9  1  0  0  0  0
  7 10  1  0  0  0  0
 10 11  1  0  0  0  0
 10 12  1  0  0  0  0
 10 13  1  0  0  0  0
 13 14  1  0  0  0  0
 13 15  1  0  0  0  0
 15 16  1  0  0  0  0
 15 17  1  0  0  0  0
  1 18  1  0  0  0  0
 15 18  1  0  0  0  0
 18 19  1  0  0  0  0
 18 20  1  0  0  0  0
 13 21  1  0  0  0  0
 21 22  1  0  0  0  0
M  END
> <VConfSearch Rank>
572

> <Conf_Id>
95

> <Delta U+W>
-2.289

> <U+W>
4.134

> <U>
6.373

> <W>
-2.240

> <W(PB)>
-4.254

> <W(SA)>
2.015

> <Valence>
12.093

> <Coulomb>
-8.058

> <VdW>
2.339

> <VdW6>
-9.683

> <VdW12>
12.022

> <Bond>
0.268

> <Angle>
3.005

> <Pdih>
8.820

> <Idih>
0.000

> <Tether>
0.000

$$$$
VeraChem MOL file


 22 22  0  0  0  0  0  0  0  0999 V2000     
   19.1235   18.6817   24.0881 C   0  0  0  0  0  0  0  0  0  0  0  0
   19.1682   18.8552   25.1719 H   0  0  0  0  0  0  0  0  0  0  0  0
   18.4009   17.8664   23.9464 H   0  0  0  0  0  0  0  0  0  0  0  0
   20.5174   18.2032   23.6166 C   0  0  0  0  0  0  0  0  0  0  0  0
   21.2962   18.7227   24.1911 H   0  0  0  0  0  0  0  0  0  0  0  0
   20.6184   17.1413   23.8793 H   0  0  0  0  0  0  0  0  0  0  0  0
   20.7923   18.3746   22.1045 C   0  0  0  0  0  0  0  0  0  0  0  0
   19.8884   18.1697   21.5148 H   0  0  0  0  0  0  0  0  0  0  0  0
   21.5299   17.6179   21.8048 H   0  0  0  0  0  0  0  0  0  0  0  0
   21.3767   19.7672   21.7575 C   0  0  0  0  0  0  0  0  0  0  0  0
   22.2247   19.9764   22.4224 H   0  0  0  0  0  0  0  0  0  0  0  0
   21.8027   19.7271   20.7466 H   0  0  0  0  0  0  0  0  0  0  0  0
   20.3911   20.9563   21.8239 C   0  0  0  0  0  0  0  0  0  0  0  0
   20.9916   21.8723   21.7265 H   0  0  0  0  0  0  0  0  0  0  0  0
   19.5922   21.0754   23.1460 C   0  0  0  0  0  0  0  0  0  0  0  0
   20.2829   21.1506   23.9956 H   0  0  0  0  0  0  0  0  0  0  0  0
   19.0519   22.0303   23.1134 H   0  0  0  0  0  0  0  0  0  0  0  0
   18.5594   19.9458   23.3966 C   0  0  0  0  0  0  0  0  0  0  0  0
   17.7500   20.3412   24.0249 H   0  0  0  0  0  0  0  0  0  0  0  0
   18.0796   19.6623   22.4506 H   0  0  0  0  0  0  0  0  0  0  0  0
   19.4978   20.8916   20.7164 O   0  0  0  0  0  0  0  0  0  0  0  0
   20.0507   20.8004   19.9138 H   0  0  0  0  0  0  0  0  0  0  0  0
  1  2  1  0  0  0  0
  1  3  1  0  0  0  0
  1  4  1  0  0  0  0
  4  5  1  0  0  0  0
  4  6  1  0  0  0  0
  4  7  1  0  0  0  0
  7  8  1  0  0  0  0
  7  9  1  0  0  0  0
  7 10  1  0  0  0  0
 10 11  1  0  0  0  0
 10 12  1  0  0  0  0
 10 13  1  0  0  0  0
 13 14  1  0  0  0  0
 13 15  1  0  0  0  0
 15 16  1  0  0  0  0
 15 17  1  0  0  0  0
  1 18  1  0  0  0  0
 15 18  1  0  0  0  0
 18 19  1  0  0  0  0
 18 20  1  0  0  0  0
 13 21  1  0  0  0  0
 21 22  1  0  0  0  0
M  END
> <VConfSearch Rank>
573

> <Conf_Id>
41

> <Delta U+W>
-2.114

> <U+W>
4.310

> <U>
6.598

> <W>
-2.289

> <W(PB)>
-4.294

> <W(SA)>
2.005

> <Valence>
12.082

> <Coulomb>
-7.801

> <VdW>
2.317

> <VdW6>
-9.658

> <VdW12>
11.975

> <Bond>
0.267

> <Angle>
3.051

> <Pdih>
8.764

> <Idih>
0.000

> <Tether>
0.000

$$$$
VeraChem MOL file


 22 22  0  0  0  0  0  0  0  0999 V2000     
   18.4557   19.7101   23.0152 C   0  0  0  0  0  0  0  0  0  0  0  0
   17.3815   19.5628   23.1917 H   0  0  0  0  0  0  0  0  0  0  0  0
   18.6985   20.7071   23.4079 H   0  0  0  0  0  0  0  0  0  0  0  0
   18.6980   19.6494   21.4904 C   0  0  0  0  0  0  0  0  0  0  0  0
   18.5096   18.6295   21.1286 H   0  0  0  0  0  0  0  0  0  0  0  0
   17.9561   20.2876   20.9916 H   0  0  0  0  0  0  0  0  0  0  0  0
   20.1048   20.1031   21.0431 C   0  0  0  0  0  0  0  0  0  0  0  0
   20.2127   21.1823   21.2154 H   0  0  0  0  0  0  0  0  0  0  0  0
   20.1729   19.9709   19.9550 H   0  0  0  0  0  0  0  0  0  0  0  0
   21.2852   19.3395   21.7026 C   0  0  0  0  0  0  0  0  0  0  0  0
   21.1386   18.2569   21.5983 H   0  0  0  0  0  0  0  0  0  0  0  0
   22.1923   19.5721   21.1302 H   0  0  0  0  0  0  0  0  0  0  0  0
   21.5777   19.6906   23.1842 C   0  0  0  0  0  0  0  0  0  0  0  0
   22.5946   19.3313   23.3985 H   0  0  0  0  0  0  0  0  0  0  0  0
   20.6535   19.0201   24.2338 C   0  0  0  0  0  0  0  0  0  0  0  0
   21.1549   18.1135   24.5965 H   0  0  0  0  0  0  0  0  0  0  0  0
   20.5738   19.6757   25.1109 H   0  0  0  0  0  0  0  0  0  0  0  0
   19.2269   18.6161   23.7861 C   0  0  0  0  0  0  0  0  0  0  0  0
   19.2707   17.6981   23.1845 H   0  0  0  0  0  0  0  0  0  0  0  0
   18.6551   18.3512   24.6859 H   0  0  0  0  0  0  0  0  0  0  0  0
   21.5712   21.1032   23.3722 O   0  0  0  0  0  0  0  0  0  0  0  0
   21.7997   21.2646   24.3101 H   0  0  0  0  0  0  0  0  0  0  0  0
  1  2  1  0  0  0  0
  1  3  1  0  0  0  0
  1  4  1  0  0  0  0
  4  5  1  0  0  0  0
  4  6  1  0  0  0  0
  4  7  1  0  0  0  0
  7  8  1  0  0  0  0
  7  9  1  0  0  0  0
  7 10  1  0  0  0  0
 10 11  1  0  0  0  0
 10 12  1  0  0  0  0
 10 13  1  0  0  0  0
 13 14  1  0  0  0  0
 13 15  1  0  0  0  0
 15 16  1  0  0  0  0
 15 17  1  0  0  0  0
  1 18  1  0  0  0  0
 15 18  1  0  0  0  0
 18 19  1  0  0  0  0
 18 20  1  0  0  0  0
 13 21  1  0  0  0  0
 21 22  1  0  0  0  0
M  END
> <VConfSearch Rank>
574

> <Conf_Id>
104

> <Delta U+W>
-1.172

> <U+W>
5.252

> <U>
7.482

> <W>
-2.230

> <W(PB)>
-4.220

> <W(SA)>
1.990

> <Valence>
12.309

> <Coulomb>
-7.084

> <VdW>
2.258

> <VdW6>
-9.770

> <VdW12>
12.028

> <Bond>
0.284

> <Angle>
3.491

> <Pdih>
8.535

> <Idih>
0.000

> <Tether>
0.000

$$$$
VeraChem MOL file


 22 22  0  0  0  0  0  0  0  0999 V2000     
   20.7066   19.7453   24.1749 C   0  0  0  0  0  0  0  0  0  0  0  0
   19.7995   20.2117   24.5825 H   0  0  0  0  0  0  0  0  0  0  0  0
   21.4290   19.7159   25.0020 H   0  0  0  0  0  0  0  0  0  0  0  0
   21.3138   20.6112   23.0475 C   0  0  0  0  0  0  0  0  0  0  0  0
   21.8775   21.4362   23.5044 H   0  0  0  0  0  0  0  0  0  0  0  0
   22.0632   20.0236   22.5012 H   0  0  0  0  0  0  0  0  0  0  0  0
   20.2976   21.2278   22.0531 C   0  0  0  0  0  0  0  0  0  0  0  0
   20.8123   21.4135   21.1002 H   0  0  0  0  0  0  0  0  0  0  0  0
   20.0062   22.2198   22.4246 H   0  0  0  0  0  0  0  0  0  0  0  0
   18.9941   20.4290   21.7808 C   0  0  0  0  0  0  0  0  0  0  0  0
   18.2956   20.5879   22.6125 H   0  0  0  0  0  0  0  0  0  0  0  0
   18.5029   20.8709   20.9042 H   0  0  0  0  0  0  0  0  0  0  0  0
   19.1373   18.9093   21.5362 C   0  0  0  0  0  0  0  0  0  0  0  0
   18.2432   18.5808   20.9871 H   0  0  0  0  0  0  0  0  0  0  0  0
   19.1820   18.0919   22.8470 C   0  0  0  0  0  0  0  0  0  0  0  0
   18.2847   18.3225   23.4359 H   0  0  0  0  0  0  0  0  0  0  0  0
   19.1010   17.0278   22.5895 H   0  0  0  0  0  0  0  0  0  0  0  0
   20.4322   18.2859   23.7405 C   0  0  0  0  0  0  0  0  0  0  0  0
   20.2971   17.6766   24.6445 H   0  0  0  0  0  0  0  0  0  0  0  0
   21.3173   17.8742   23.2369 H   0  0  0  0  0  0  0  0  0  0  0  0
   20.2872   18.6369   20.7503 O   0  0  0  0  0  0  0  0  0  0  0  0
   21.0234   19.0287   21.2609 H   0  0  0  0  0  0  0  0  0  0  0  0
  1  2  1  0  0  0  0
  1  3  1  0  0  0  0
  1  4  1  0  0  0  0
  4  5  1  0  0  0  0
  4  6  1  0  0  0  0
  4  7  1  0  0  0  0
  7  8  1  0  0  0  0
  7  9  1  0  0  0  0
  7 10  1  0  0  0  0
 10 11  1  0  0  0  0
 10 12  1  0  0  0  0
 10 13  1  0  0  0  0
 13 14  1  0  0  0  0
 13 15  1  0  0  0  0
 15 16  1  0  0  0  0
 15 17  1  0  0  0  0
  1 18  1  0  0  0  0
 15 18  1  0  0  0  0
 18 19  1  0  0  0  0
 18 20  1  0  0  0  0
 13 21  1  0  0  0  0
 21 22  1  0  0  0  0
M  END
> <VConfSearch Rank>
575

> <Conf_Id>
99

> <Delta U+W>
-3.852

> <U+W>
2.572

> <U>
3.922

> <W>
-1.350

> <W(PB)>
-3.345

> <W(SA)>
1.995

> <Valence>
12.571

> <Coulomb>
-10.581

> <VdW>
1.932

> <VdW6>
-10.483

> <VdW12>
12.415

> <Bond>
0.268

> <Angle>
3.728

> <Pdih>
8.575

> <Idih>
0.000

> <Tether>
0.000

$$$$
VeraChem MOL file


 22 22  0  0  0  0  0  0  0  0999 V2000     
   19.4291   19.5399   21.1408 C   0  0  0  0  0  0  0  0  0  0  0  0
   19.3855   19.8783   20.0963 H   0  0  0  0  0  0  0  0  0  0  0  0
   18.6669   18.7528   21.2154 H   0  0  0  0  0  0  0  0  0  0  0  0
   19.0464   20.7450   22.0493 C   0  0  0  0  0  0  0  0  0  0  0  0
   18.8371   21.6048   21.3981 H   0  0  0  0  0  0  0  0  0  0  0  0
   18.0983   20.5436   22.5656 H   0  0  0  0  0  0  0  0  0  0  0  0
   20.1164   21.1838   23.0815 C   0  0  0  0  0  0  0  0  0  0  0  0
   19.8075   22.1456   23.5130 H   0  0  0  0  0  0  0  0  0  0  0  0
   21.0599   21.4032   22.5663 H   0  0  0  0  0  0  0  0  0  0  0  0
   20.3762   20.1981   24.2544 C   0  0  0  0  0  0  0  0  0  0  0  0
   21.3731   20.4069   24.6634 H   0  0  0  0  0  0  0  0  0  0  0  0
   19.6747   20.4325   25.0661 H   0  0  0  0  0  0  0  0  0  0  0  0
   20.2710   18.6793   23.9711 C   0  0  0  0  0  0  0  0  0  0  0  0
   20.7031   18.1617   24.8396 H   0  0  0  0  0  0  0  0  0  0  0  0
   21.0222   18.1621   22.7196 C   0  0  0  0  0  0  0  0  0  0  0  0
   22.0955   18.1300   22.9473 H   0  0  0  0  0  0  0  0  0  0  0  0
   20.7270   17.1156   22.5656 H   0  0  0  0  0  0  0  0  0  0  0  0
   20.8327   18.9275   21.3806 C   0  0  0  0  0  0  0  0  0  0  0  0
   21.5980   19.7082   21.2888 H   0  0  0  0  0  0  0  0  0  0  0  0
   21.0508   18.2296   20.5609 H   0  0  0  0  0  0  0  0  0  0  0  0
   18.9051   18.3024   23.8960 O   0  0  0  0  0  0  0  0  0  0  0  0
   18.5694   18.7851   23.1142 H   0  0  0  0  0  0  0  0  0  0  0  0
  1  2  1  0  0  0  0
  1  3  1  0  0  0  0
  1  4  1  0  0  0  0
  4  5  1  0  0  0  0
  4  6  1  0  0  0  0
  4  7  1  0  0  0  0
  7  8  1  0  0  0  0
  7  9  1  0  0  0  0
  7 10  1  0  0  0  0
 10 11  1  0  0  0  0
 10 12  1  0  0  0  0
 10 13  1  0  0  0  0
 13 14  1  0  0  0  0
 13 15  1  0  0  0  0
 15 16  1  0  0  0  0
 15 17  1  0  0  0  0
  1 18  1  0  0  0  0
 15 18  1  0  0  0  0
 18 19  1  0  0  0  0
 18 20  1  0  0  0  0
 13 21  1  0  0  0  0
 21 22  1  0  0  0  0
M  END
> <VConfSearch Rank>
576

> <Conf_Id>
98

> <Delta U+W>
0.930

> <U+W>
7.353

> <U>
8.455

> <W>
-1.102

> <W(PB)>
-3.101

> <W(SA)>
2.000

> <Valence>
15.601

> <Coulomb>
-10.573

> <VdW>
3.427

> <VdW6>
-11.360

> <VdW12>
14.787

> <Bond>
0.471

> <Angle>
5.445

> <Pdih>
9.685

> <Idih>
0.000

> <Tether>
0.000

$$$$
VeraChem MOL file


 22 22  0  0  0  0  0  0  0  0999 V2000     
   18.5693   19.8020   21.7660 C   0  0  0  0  0  0  0  0  0  0  0  0
   18.2315   20.4254   22.6038 H   0  0  0  0  0  0  0  0  0  0  0  0
   17.7720   19.8780   21.0142 H   0  0  0  0  0  0  0  0  0  0  0  0
   18.6775   18.3248   22.2226 C   0  0  0  0  0  0  0  0  0  0  0  0
   17.6838   18.0131   22.5720 H   0  0  0  0  0  0  0  0  0  0  0  0
   18.9016   17.6876   21.3563 H   0  0  0  0  0  0  0  0  0  0  0  0
   19.7021   18.0287   23.3527 C   0  0  0  0  0  0  0  0  0  0  0  0
   20.6039   17.5658   22.9313 H   0  0  0  0  0  0  0  0  0  0  0  0
   19.2727   17.2624   24.0121 H   0  0  0  0  0  0  0  0  0  0  0  0
   20.1045   19.2559   24.2129 C   0  0  0  0  0  0  0  0  0  0  0  0
   19.1969   19.7520   24.5789 H   0  0  0  0  0  0  0  0  0  0  0  0
   20.6107   18.8921   25.1172 H   0  0  0  0  0  0  0  0  0  0  0  0
   21.0153   20.3073   23.5138 C   0  0  0  0  0  0  0  0  0  0  0  0
   20.6069   21.3054   23.7284 H   0  0  0  0  0  0  0  0  0  0  0  0
   21.1589   20.1641   21.9778 C   0  0  0  0  0  0  0  0  0  0  0  0
   21.9137   20.8779   21.6233 H   0  0  0  0  0  0  0  0  0  0  0  0
   21.5659   19.1750   21.7358 H   0  0  0  0  0  0  0  0  0  0  0  0
   19.8620   20.4018   21.1645 C   0  0  0  0  0  0  0  0  0  0  0  0
   19.7122   21.4832   21.0424 H   0  0  0  0  0  0  0  0  0  0  0  0
   20.0078   20.0016   20.1519 H   0  0  0  0  0  0  0  0  0  0  0  0
   22.3202   20.2168   24.0742 O   0  0  0  0  0  0  0  0  0  0  0  0
   22.8557   20.9248   23.6594 H   0  0  0  0  0  0  0  0  0  0  0  0
  1  2  1  0  0  0  0
  1  3  1  0  0  0  0
  1  4  1  0  0  0  0
  4  5  1  0  0  0  0
  4  6  1  0  0  0  0
  4  7  1  0  0  0  0
  7  8  1  0  0  0  0
  7  9  1  0  0  0  0
  7 10  1  0  0  0  0
 10 11  1  0  0  0  0
 10 12  1  0  0  0  0
 10 13  1  0  0  0  0
 13 14  1  0  0  0  0
 13 15  1  0  0  0  0
 15 16  1  0  0  0  0
 15 17  1  0  0  0  0
  1 18  1  0  0  0  0
 15 18  1  0  0  0  0
 18 19  1  0  0  0  0
 18 20  1  0  0  0  0
 13 21  1  0  0  0  0
 21 22  1  0  0  0  0
M  END
> <VConfSearch Rank>
577

> <Conf_Id>
141

> <Delta U+W>
0.000

> <U+W>
6.423

> <U>
8.781

> <W>
-2.358

> <W(PB)>
-4.373

> <W(SA)>
2.015

> <Valence>
13.328

> <Coulomb>
-8.387

> <VdW>
3.840

> <VdW6>
-9.744

> <VdW12>
13.584

> <Bond>
0.436

> <Angle>
3.478

> <Pdih>
9.415

> <Idih>
0.000

> <Tether>
0.000

$$$$
VeraChem MOL file


 22 22  0  0  0  0  0  0  0  0999 V2000     
   20.7249   18.1606   22.0198 C   0  0  0  0  0  0  0  0  0  0  0  0
   21.3894   18.7939   21.4166 H   0  0  0  0  0  0  0  0  0  0  0  0
   21.0375   17.1247   21.8297 H   0  0  0  0  0  0  0  0  0  0  0  0
   19.2551   18.3003   21.5552 C   0  0  0  0  0  0  0  0  0  0  0  0
   19.1595   17.8515   20.5571 H   0  0  0  0  0  0  0  0  0  0  0  0
   18.6071   17.7053   22.2132 H   0  0  0  0  0  0  0  0  0  0  0  0
   18.7205   19.7493   21.4856 C   0  0  0  0  0  0  0  0  0  0  0  0
   17.6574   19.7093   21.2117 H   0  0  0  0  0  0  0  0  0  0  0  0
   19.2209   20.2838   20.6665 H   0  0  0  0  0  0  0  0  0  0  0  0
   18.8632   20.5628   22.7952 C   0  0  0  0  0  0  0  0  0  0  0  0
   18.2513   21.4685   22.6917 H   0  0  0  0  0  0  0  0  0  0  0  0
   18.4446   20.0067   23.6440 H   0  0  0  0  0  0  0  0  0  0  0  0
   20.3239   20.9747   23.0854 C   0  0  0  0  0  0  0  0  0  0  0  0
   20.8321   21.1407   22.1246 H   0  0  0  0  0  0  0  0  0  0  0  0
   21.1363   19.9349   23.8904 C   0  0  0  0  0  0  0  0  0  0  0  0
   22.2001   20.1711   23.7580 H   0  0  0  0  0  0  0  0  0  0  0  0
   20.9308   20.0633   24.9615 H   0  0  0  0  0  0  0  0  0  0  0  0
   20.9088   18.4457   23.5288 C   0  0  0  0  0  0  0  0  0  0  0  0
   21.7694   17.8715   23.8981 H   0  0  0  0  0  0  0  0  0  0  0  0
   20.0404   18.0620   24.0814 H   0  0  0  0  0  0  0  0  0  0  0  0
   20.3194   22.1937   23.8183 O   0  0  0  0  0  0  0  0  0  0  0  0
   19.8666   22.8583   23.2581 H   0  0  0  0  0  0  0  0  0  0  0  0
  1  2  1  0  0  0  0
  1  3  1  0  0  0  0
  1  4  1  0  0  0  0
  4  5  1  0  0  0  0
  4  6  1  0  0  0  0
  4  7  1  0  0  0  0
  7  8  1  0  0  0  0
  7  9  1  0  0  0  0
  7 10  1  0  0  0  0
 10 11  1  0  0  0  0
 10 12  1  0  0  0  0
 10 13  1  0  0  0  0
 13 14  1  0  0  0  0
 13 15  1  0  0  0  0
 15 16  1  0  0  0  0
 15 17  1  0  0  0  0
  1 18  1  0  0  0  0
 15 18  1  0  0  0  0
 18 19  1  0  0  0  0
 18 20  1  0  0  0  0
 13 21  1  0  0  0  0
 21 22  1  0  0  0  0
M  END
> <VConfSearch Rank>
578

> <Conf_Id>
144

> <Delta U+W>
-3.291

> <U+W>
3.132

> <U>
5.411

> <W>
-2.279

> <W(PB)>
-4.300

> <W(SA)>
2.021

> <Valence>
11.909

> <Coulomb>
-8.733

> <VdW>
2.236

> <VdW6>
-8.936

> <VdW12>
11.172

> <Bond>
0.223

> <Angle>
2.457

> <Pdih>
9.228

> <Idih>
0.000

> <Tether>
0.000

$$$$
VeraChem MOL file


 22 22  0  0  0  0  0  0  0  0999 V2000     
   21.4640   18.7630   22.4166 C   0  0  0  0  0  0  0  0  0  0  0  0
   22.4958   18.5167   22.1310 H   0  0  0  0  0  0  0  0  0  0  0  0
   21.0820   17.8881   22.9601 H   0  0  0  0  0  0  0  0  0  0  0  0
   20.6537   19.0042   21.1215 C   0  0  0  0  0  0  0  0  0  0  0  0
   20.8202   20.0323   20.7722 H   0  0  0  0  0  0  0  0  0  0  0  0
   21.0517   18.3573   20.3277 H   0  0  0  0  0  0  0  0  0  0  0  0
   19.1339   18.7350   21.2383 C   0  0  0  0  0  0  0  0  0  0  0  0
   18.9495   17.6608   21.1002 H   0  0  0  0  0  0  0  0  0  0  0  0
   18.6323   19.2341   20.3979 H   0  0  0  0  0  0  0  0  0  0  0  0
   18.4585   19.1738   22.5609 C   0  0  0  0  0  0  0  0  0  0  0  0
   17.3766   19.2353   22.3813 H   0  0  0  0  0  0  0  0  0  0  0  0
   18.5910   18.3848   23.3124 H   0  0  0  0  0  0  0  0  0  0  0  0
   18.9628   20.5166   23.1357 C   0  0  0  0  0  0  0  0  0  0  0  0
   19.2163   21.1980   22.3112 H   0  0  0  0  0  0  0  0  0  0  0  0
   20.1892   20.3421   24.0601 C   0  0  0  0  0  0  0  0  0  0  0  0
   20.3378   21.2714   24.6263 H   0  0  0  0  0  0  0  0  0  0  0  0
   19.9788   19.5636   24.8049 H   0  0  0  0  0  0  0  0  0  0  0  0
   21.5148   20.0066   23.3364 C   0  0  0  0  0  0  0  0  0  0  0  0
   21.8420   20.8784   22.7534 H   0  0  0  0  0  0  0  0  0  0  0  0
   22.2906   19.8476   24.0977 H   0  0  0  0  0  0  0  0  0  0  0  0
   17.9162   21.0949   23.9040 O   0  0  0  0  0  0  0  0  0  0  0  0
   17.7184   20.4608   24.6237 H   0  0  0  0  0  0  0  0  0  0  0  0
  1  2  1  0  0  0  0
  1  3  1  0  0  0  0
  1  4  1  0  0  0  0
  4  5  1  0  0  0  0
  4  6  1  0  0  0  0
  4  7  1  0  0  0  0
  7  8  1  0  0  0  0
  7  9  1  0  0  0  0
  7 10  1  0  0  0  0
 10 11  1  0  0  0  0
 10 12  1  0  0  0  0
 10 13  1  0  0  0  0
 13 14  1  0  0  0  0
 13 15  1  0  0  0  0
 15 16  1  0  0  0  0
 15 17  1  0  0  0  0
  1 18  1  0  0  0  0
 15 18  1  0  0  0  0
 18 19  1  0  0  0  0
 18 20  1  0  0  0  0
 13 21  1  0  0  0  0
 21 22  1  0  0  0  0
M  END
> <VConfSearch Rank>
579

> <Conf_Id>
76

> <Delta U+W>
-3.175

> <U+W>
3.248

> <U>
5.336

> <W>
-2.088

> <W(PB)>
-4.098

> <W(SA)>
2.010

> <Valence>
12.390

> <Coulomb>
-9.270

> <VdW>
2.216

> <VdW6>
-8.967

> <VdW12>
11.183

> <Bond>
0.218

> <Angle>
2.426

> <Pdih>
9.745

> <Idih>
0.000

> <Tether>
0.000

$$$$
VeraChem MOL file


 22 22  0  0  0  0  0  0  0  0999 V2000     
   20.0544   17.8786   23.5231 C   0  0  0  0  0  0  0  0  0  0  0  0
   20.6830   17.5481   24.3612 H   0  0  0  0  0  0  0  0  0  0  0  0
   19.3583   17.0514   23.3284 H   0  0  0  0  0  0  0  0  0  0  0  0
   20.9617   18.0726   22.2847 C   0  0  0  0  0  0  0  0  0  0  0  0
   21.9333   18.4752   22.6015 H   0  0  0  0  0  0  0  0  0  0  0  0
   21.1780   17.0812   21.8638 H   0  0  0  0  0  0  0  0  0  0  0  0
   20.3698   18.9714   21.1742 C   0  0  0  0  0  0  0  0  0  0  0  0
   19.2877   18.8112   21.0732 H   0  0  0  0  0  0  0  0  0  0  0  0
   20.8134   18.6673   20.2166 H   0  0  0  0  0  0  0  0  0  0  0  0
   20.6872   20.4737   21.3854 C   0  0  0  0  0  0  0  0  0  0  0  0
   21.7648   20.5944   21.5548 H   0  0  0  0  0  0  0  0  0  0  0  0
   20.4735   21.0113   20.4522 H   0  0  0  0  0  0  0  0  0  0  0  0
   19.9217   21.1795   22.5277 C   0  0  0  0  0  0  0  0  0  0  0  0
   20.3882   22.1665   22.6594 H   0  0  0  0  0  0  0  0  0  0  0  0
   19.9773   20.4624   23.9000 C   0  0  0  0  0  0  0  0  0  0  0  0
   21.0224   20.3271   24.2069 H   0  0  0  0  0  0  0  0  0  0  0  0
   19.5354   21.1373   24.6443 H   0  0  0  0  0  0  0  0  0  0  0  0
   19.2254   19.1076   23.9665 C   0  0  0  0  0  0  0  0  0  0  0  0
   18.8957   18.9366   25.0002 H   0  0  0  0  0  0  0  0  0  0  0  0
   18.3037   19.1587   23.3722 H   0  0  0  0  0  0  0  0  0  0  0  0
   18.5677   21.3780   22.1334 O   0  0  0  0  0  0  0  0  0  0  0  0
   18.1096   21.7777   22.9007 H   0  0  0  0  0  0  0  0  0  0  0  0
  1  2  1  0  0  0  0
  1  3  1  0  0  0  0
  1  4  1  0  0  0  0
  4  5  1  0  0  0  0
  4  6  1  0  0  0  0
  4  7  1  0  0  0  0
  7  8  1  0  0  0  0
  7  9  1  0  0  0  0
  7 10  1  0  0  0  0
 10 11  1  0  0  0  0
 10 12  1  0  0  0  0
 10 13  1  0  0  0  0
 13 14  1  0  0  0  0
 13 15  1  0  0  0  0
 15 16  1  0  0  0  0
 15 17  1  0  0  0  0
  1 18  1  0  0  0  0
 15 18  1  0  0  0  0
 18 19  1  0  0  0  0
 18 20  1  0  0  0  0
 13 21  1  0  0  0  0
 21 22  1  0  0  0  0
M  END
> <VConfSearch Rank>
580

> <Conf_Id>
95

> <Delta U+W>
-2.289

> <U+W>
4.134

> <U>
6.373

> <W>
-2.240

> <W(PB)>
-4.254

> <W(SA)>
2.015

> <Valence>
12.093

> <Coulomb>
-8.058

> <VdW>
2.339

> <VdW6>
-9.683

> <VdW12>
12.022

> <Bond>
0.268

> <Angle>
3.005

> <Pdih>
8.820

> <Idih>
0.000

> <Tether>
0.000

$$$$
VeraChem MOL file


 22 22  0  0  0  0  0  0  0  0999 V2000     
   21.1002   18.7600   24.0430 C   0  0  0  0  0  0  0  0  0  0  0  0
   21.7429   19.2240   24.8034 H   0  0  0  0  0  0  0  0  0  0  0  0
   21.1522   17.6785   24.2284 H   0  0  0  0  0  0  0  0  0  0  0  0
   21.7047   19.0591   22.6504 C   0  0  0  0  0  0  0  0  0  0  0  0
   22.1410   20.0672   22.6497 H   0  0  0  0  0  0  0  0  0  0  0  0
   22.5490   18.3742   22.4928 H   0  0  0  0  0  0  0  0  0  0  0  0
   20.7202   18.9235   21.4656 C   0  0  0  0  0  0  0  0  0  0  0  0
   20.0320   18.0813   21.6207 H   0  0  0  0  0  0  0  0  0  0  0  0
   21.3017   18.6804   20.5660 H   0  0  0  0  0  0  0  0  0  0  0  0
   19.9400   20.2324   21.1841 C   0  0  0  0  0  0  0  0  0  0  0  0
   20.6503   21.0669   21.1199 H   0  0  0  0  0  0  0  0  0  0  0  0
   19.4835   20.1617   20.1883 H   0  0  0  0  0  0  0  0  0  0  0  0
   18.8355   20.6002   22.2012 C   0  0  0  0  0  0  0  0  0  0  0  0
   18.5087   21.6220   21.9596 H   0  0  0  0  0  0  0  0  0  0  0  0
   19.2825   20.6053   23.6846 C   0  0  0  0  0  0  0  0  0  0  0  0
   20.1226   21.2984   23.8203 H   0  0  0  0  0  0  0  0  0  0  0  0
   18.4533   21.0207   24.2717 H   0  0  0  0  0  0  0  0  0  0  0  0
   19.6386   19.2143   24.2709 C   0  0  0  0  0  0  0  0  0  0  0  0
   19.4555   19.2308   25.3537 H   0  0  0  0  0  0  0  0  0  0  0  0
   18.9529   18.4548   23.8727 H   0  0  0  0  0  0  0  0  0  0  0  0
   17.7241   19.7264   22.0280 O   0  0  0  0  0  0  0  0  0  0  0  0
   17.4948   19.7478   21.0766 H   0  0  0  0  0  0  0  0  0  0  0  0
  1  2  1  0  0  0  0
  1  3  1  0  0  0  0
  1  4  1  0  0  0  0
  4  5  1  0  0  0  0
  4  6  1  0  0  0  0
  4  7  1  0  0  0  0
  7  8  1  0  0  0  0
  7  9  1  0  0  0  0
  7 10  1  0  0  0  0
 10 11  1  0  0  0  0
 10 12  1  0  0  0  0
 10 13  1  0  0  0  0
 13 14  1  0  0  0  0
 13 15  1  0  0  0  0
 15 16  1  0  0  0  0
 15 17  1  0  0  0  0
  1 18  1  0  0  0  0
 15 18  1  0  0  0  0
 18 19  1  0  0  0  0
 18 20  1  0  0  0  0
 13 21  1  0  0  0  0
 21 22  1  0  0  0  0
M  END
> <VConfSearch Rank>
581

> <Conf_Id>
41

> <Delta U+W>
-2.114

> <U+W>
4.310

> <U>
6.598

> <W>
-2.289

> <W(PB)>
-4.294

> <W(SA)>
2.005

> <Valence>
12.082

> <Coulomb>
-7.801

> <VdW>
2.317

> <VdW6>
-9.658

> <VdW12>
11.975

> <Bond>
0.267

> <Angle>
3.051

> <Pdih>
8.764

> <Idih>
0.000

> <Tether>
0.000

$$$$
VeraChem MOL file


 22 22  0  0  0  0  0  0  0  0999 V2000     
   18.8434   20.6458   22.7938 C   0  0  0  0  0  0  0  0  0  0  0  0
   17.9260   21.2065   23.0188 H   0  0  0  0  0  0  0  0  0  0  0  0
   19.5432   21.3661   22.3482 H   0  0  0  0  0  0  0  0  0  0  0  0
   18.4837   19.5354   21.7814 C   0  0  0  0  0  0  0  0  0  0  0  0
   17.8341   18.7933   22.2651 H   0  0  0  0  0  0  0  0  0  0  0  0
   17.8857   19.9778   20.9732 H   0  0  0  0  0  0  0  0  0  0  0  0
   19.6988   18.8221   21.1488 C   0  0  0  0  0  0  0  0  0  0  0  0
   20.2313   19.5216   20.4908 H   0  0  0  0  0  0  0  0  0  0  0  0
   19.3203   18.0291   20.4901 H   0  0  0  0  0  0  0  0  0  0  0  0
   20.6901   18.1851   22.1602 C   0  0  0  0  0  0  0  0  0  0  0  0
   20.1474   17.5455   22.8677 H   0  0  0  0  0  0  0  0  0  0  0  0
   21.3505   17.5120   21.5987 H   0  0  0  0  0  0  0  0  0  0  0  0
   21.5985   19.1742   22.9351 C   0  0  0  0  0  0  0  0  0  0  0  0
   22.4298   18.5831   23.3460 H   0  0  0  0  0  0  0  0  0  0  0  0
   20.9418   19.8920   24.1429 C   0  0  0  0  0  0  0  0  0  0  0  0
   21.1891   19.3245   25.0495 H   0  0  0  0  0  0  0  0  0  0  0  0
   21.4173   20.8723   24.2782 H   0  0  0  0  0  0  0  0  0  0  0  0
   19.4053   20.0858   24.1192 C   0  0  0  0  0  0  0  0  0  0  0  0
   18.9060   19.1385   24.3639 H   0  0  0  0  0  0  0  0  0  0  0  0
   19.1415   20.7760   24.9320 H   0  0  0  0  0  0  0  0  0  0  0  0
   22.1543   20.1405   22.0473 O   0  0  0  0  0  0  0  0  0  0  0  0
   22.7456   20.7085   22.5818 H   0  0  0  0  0  0  0  0  0  0  0  0
  1  2  1  0  0  0  0
  1  3  1  0  0  0  0
  1  4  1  0  0  0  0
  4  5  1  0  0  0  0
  4  6  1  0  0  0  0
  4  7  1  0  0  0  0
  7  8  1  0  0  0  0
  7  9  1  0  0  0  0
  7 10  1  0  0  0  0
 10 11  1  0  0  0  0
 10 12  1  0  0  0  0
 10 13  1  0  0  0  0
 13 14  1  0  0  0  0
 13 15  1  0  0  0  0
 15 16  1  0  0  0  0
 15 17  1  0  0  0  0
  1 18  1  0  0  0  0
 15 18  1  0  0  0  0
 18 19  1  0  0  0  0
 18 20  1  0  0  0  0
 13 21  1  0  0  0  0
 21 22  1  0  0  0  0
M  END
> <VConfSearch Rank>
582

> <Conf_Id>
104

> <Delta U+W>
-1.172

> <U+W>
5.252

> <U>
7.482

> <W>
-2.230

> <W(PB)>
-4.220

> <W(SA)>
1.990

> <Valence>
12.309

> <Coulomb>
-7.084

> <VdW>
2.258

> <VdW6>
-9.770

> <VdW12>
12.028

> <Bond>
0.284

> <Angle>
3.491

> <Pdih>
8.535

> <Idih>
0.000

> <Tether>
0.000

$$$$
VeraChem MOL file


 22 22  0  0  0  0  0  0  0  0999 V2000     
   18.4934   19.0982   22.6580 C   0  0  0  0  0  0  0  0  0  0  0  0
   18.2002   19.8085   23.4428 H   0  0  0  0  0  0  0  0  0  0  0  0
   17.5860   18.5309   22.4096 H   0  0  0  0  0  0  0  0  0  0  0  0
   19.5472   18.0975   23.1847 C   0  0  0  0  0  0  0  0  0  0  0  0
   19.0329   17.3226   23.7697 H   0  0  0  0  0  0  0  0  0  0  0  0
   19.9959   17.5624   22.3375 H   0  0  0  0  0  0  0  0  0  0  0  0
   20.6601   18.7021   24.0777 C   0  0  0  0  0  0  0  0  0  0  0  0
   21.5464   18.0558   24.0144 H   0  0  0  0  0  0  0  0  0  0  0  0
   20.3335   18.6465   25.1252 H   0  0  0  0  0  0  0  0  0  0  0  0
   21.0793   20.1705   23.7959 C   0  0  0  0  0  0  0  0  0  0  0  0
   20.3378   20.8470   24.2404 H   0  0  0  0  0  0  0  0  0  0  0  0
   22.0115   20.3673   24.3412 H   0  0  0  0  0  0  0  0  0  0  0  0
   21.2935   20.5707   22.3181 C   0  0  0  0  0  0  0  0  0  0  0  0
   21.9424   21.4582   22.3104 H   0  0  0  0  0  0  0  0  0  0  0  0
   19.9804   20.9713   21.6084 C   0  0  0  0  0  0  0  0  0  0  0  0
   19.5042   21.7788   22.1796 H   0  0  0  0  0  0  0  0  0  0  0  0
   20.2374   21.4097   20.6353 H   0  0  0  0  0  0  0  0  0  0  0  0
   18.9461   19.8416   21.3787 C   0  0  0  0  0  0  0  0  0  0  0  0
   18.0599   20.2878   20.9073 H   0  0  0  0  0  0  0  0  0  0  0  0
   19.3376   19.1211   20.6479 H   0  0  0  0  0  0  0  0  0  0  0  0
   21.9349   19.5240   21.6060 O   0  0  0  0  0  0  0  0  0  0  0  0
   21.3433   18.7550   21.7281 H   0  0  0  0  0  0  0  0  0  0  0  0
  1  2  1  0  0  0  0
  1  3  1  0  0  0  0
  1  4  1  0  0  0  0
  4  5  1  0  0  0  0
  4  6  1  0  0  0  0
  4  7  1  0  0  0  0
  7  8  1  0  0  0  0
  7  9  1  0  0  0  0
  7 10  1  0  0  0  0
 10 11  1  0  0  0  0
 10 12  1  0  0  0  0
 10 13  1  0  0  0  0
 13 14  1  0  0  0  0
 13 15  1  0  0  0  0
 15 16  1  0  0  0  0
 15 17  1  0  0  0  0
  1 18  1  0  0  0  0
 15 18  1  0  0  0  0
 18 19  1  0  0  0  0
 18 20  1  0  0  0  0
 13 21  1  0  0  0  0
 21 22  1  0  0  0  0
M  END
> <VConfSearch Rank>
583

> <Conf_Id>
99

> <Delta U+W>
-3.852

> <U+W>
2.572

> <U>
3.922

> <W>
-1.350

> <W(PB)>
-3.345

> <W(SA)>
1.995

> <Valence>
12.571

> <Coulomb>
-10.581

> <VdW>
1.932

> <VdW6>
-10.483

> <VdW12>
12.415

> <Bond>
0.268

> <Angle>
3.728

> <Pdih>
8.575

> <Idih>
0.000

> <Tether>
0.000

$$$$
VeraChem MOL file


 22 22  0  0  0  0  0  0  0  0999 V2000     
   20.6021   18.6978   23.9813 C   0  0  0  0  0  0  0  0  0  0  0  0
   20.5465   18.3997   25.0374 H   0  0  0  0  0  0  0  0  0  0  0  0
   21.4094   18.0862   23.5566 H   0  0  0  0  0  0  0  0  0  0  0  0
   20.9876   20.2053   23.9304 C   0  0  0  0  0  0  0  0  0  0  0  0
   21.0990   20.5597   24.9644 H   0  0  0  0  0  0  0  0  0  0  0  0
   21.9822   20.3266   23.4808 H   0  0  0  0  0  0  0  0  0  0  0  0
   19.9781   21.1406   23.2169 C   0  0  0  0  0  0  0  0  0  0  0  0
   20.2667   22.1809   23.4198 H   0  0  0  0  0  0  0  0  0  0  0  0
   18.9873   21.0350   23.6759 H   0  0  0  0  0  0  0  0  0  0  0  0
   19.8635   20.9709   21.6765 C   0  0  0  0  0  0  0  0  0  0  0  0
   18.8913   21.3693   21.3590 H   0  0  0  0  0  0  0  0  0  0  0  0
   20.6118   21.6181   21.1997 H   0  0  0  0  0  0  0  0  0  0  0  0
   20.0289   19.5505   21.0822 C   0  0  0  0  0  0  0  0  0  0  0  0
   19.6938   19.6009   20.0363 H   0  0  0  0  0  0  0  0  0  0  0  0
   19.2126   18.4239   21.7623 C   0  0  0  0  0  0  0  0  0  0  0  0
   18.1634   18.5210   21.4548 H   0  0  0  0  0  0  0  0  0  0  0  0
   19.5515   17.4686   21.3398 H   0  0  0  0  0  0  0  0  0  0  0  0
   19.2565   18.3181   23.3121 C   0  0  0  0  0  0  0  0  0  0  0  0
   18.4451   18.9147   23.7471 H   0  0  0  0  0  0  0  0  0  0  0  0
   19.0141   17.2820   23.5850 H   0  0  0  0  0  0  0  0  0  0  0  0
   21.4034   19.1987   21.0651 O   0  0  0  0  0  0  0  0  0  0  0  0
   21.6511   19.1671   22.0109 H   0  0  0  0  0  0  0  0  0  0  0  0
  1  2  1  0  0  0  0
  1  3  1  0  0  0  0
  1  4  1  0  0  0  0
  4  5  1  0  0  0  0
  4  6  1  0  0  0  0
  4  7  1  0  0  0  0
  7  8  1  0  0  0  0
  7  9  1  0  0  0  0
  7 10  1  0  0  0  0
 10 11  1  0  0  0  0
 10 12  1  0  0  0  0
 10 13  1  0  0  0  0
 13 14  1  0  0  0  0
 13 15  1  0  0  0  0
 15 16  1  0  0  0  0
 15 17  1  0  0  0  0
  1 18  1  0  0  0  0
 15 18  1  0  0  0  0
 18 19  1  0  0  0  0
 18 20  1  0  0  0  0
 13 21  1  0  0  0  0
 21 22  1  0  0  0  0
M  END
> <VConfSearch Rank>
584

> <Conf_Id>
98

> <Delta U+W>
0.930

> <U+W>
7.353

> <U>
8.455

> <W>
-1.102

> <W(PB)>
-3.101

> <W(SA)>
2.000

> <Valence>
15.601

> <Coulomb>
-10.573

> <VdW>
3.427

> <VdW6>
-11.360

> <VdW12>
14.787

> <Bond>
0.471

> <Angle>
5.445

> <Pdih>
9.685

> <Idih>
0.000

> <Tether>
0.000

$$$$
VeraChem MOL file


 22 22  0  0  0  0  0  0  0  0999 V2000     
   19.1134   19.7170   21.2037 C   0  0  0  0  0  0  0  0  0  0  0  0
   18.3726   20.2702   21.7954 H   0  0  0  0  0  0  0  0  0  0  0  0
   18.7418   19.7586   20.1708 H   0  0  0  0  0  0  0  0  0  0  0  0
   19.1454   18.2353   21.6571 C   0  0  0  0  0  0  0  0  0  0  0  0
   18.1370   17.8237   21.5133 H   0  0  0  0  0  0  0  0  0  0  0  0
   19.7996   17.6601   20.9881 H   0  0  0  0  0  0  0  0  0  0  0  0
   19.5674   17.9770   23.1302 C   0  0  0  0  0  0  0  0  0  0  0  0
   20.6024   17.6131   23.1668 H   0  0  0  0  0  0  0  0  0  0  0  0
   18.9620   17.1472   23.5194 H   0  0  0  0  0  0  0  0  0  0  0  0
   19.4130   19.1936   24.0809 C   0  0  0  0  0  0  0  0  0  0  0  0
   18.3949   19.5925   23.9924 H   0  0  0  0  0  0  0  0  0  0  0  0
   19.4855   18.8337   25.1161 H   0  0  0  0  0  0  0  0  0  0  0  0
   20.4349   20.3503   23.8767 C   0  0  0  0  0  0  0  0  0  0  0  0
   19.8786   21.2987   23.8824 H   0  0  0  0  0  0  0  0  0  0  0  0
   21.2744   20.2904   22.5760 C   0  0  0  0  0  0  0  0  0  0  0  0
   22.0343   21.0819   22.6066 H   0  0  0  0  0  0  0  0  0  0  0  0
   21.8411   19.3520   22.5453 H   0  0  0  0  0  0  0  0  0  0  0  0
   20.4729   20.4526   21.2602 C   0  0  0  0  0  0  0  0  0  0  0  0
   20.2904   21.5216   21.0847 H   0  0  0  0  0  0  0  0  0  0  0  0
   21.1013   20.1132   20.4256 H   0  0  0  0  0  0  0  0  0  0  0  0
   21.3442   20.3467   24.9715 O   0  0  0  0  0  0  0  0  0  0  0  0
   21.9380   21.1164   24.8482 H   0  0  0  0  0  0  0  0  0  0  0  0
  1  2  1  0  0  0  0
  1  3  1  0  0  0  0
  1  4  1  0  0  0  0
  4  5  1  0  0  0  0
  4  6  1  0  0  0  0
  4  7  1  0  0  0  0
  7  8  1  0  0  0  0
  7  9  1  0  0  0  0
  7 10  1  0  0  0  0
 10 11  1  0  0  0  0
 10 12  1  0  0  0  0
 10 13  1  0  0  0  0
 13 14  1  0  0  0  0
 13 15  1  0  0  0  0
 15 16  1  0  0  0  0
 15 17  1  0  0  0  0
  1 18  1  0  0  0  0
 15 18  1  0  0  0  0
 18 19  1  0  0  0  0
 18 20  1  0  0  0  0
 13 21  1  0  0  0  0
 21 22  1  0  0  0  0
M  END
> <VConfSearch Rank>
585

> <Conf_Id>
141

> <Delta U+W>
0.000

> <U+W>
6.423

> <U>
8.781

> <W>
-2.358

> <W(PB)>
-4.373

> <W(SA)>
2.015

> <Valence>
13.328

> <Coulomb>
-8.387

> <VdW>
3.840

> <VdW6>
-9.744

> <VdW12>
13.584

> <Bond>
0.436

> <Angle>
3.478

> <Pdih>
9.415

> <Idih>
0.000

> <Tether>
0.000

$$$$
VeraChem MOL file


 22 22  0  0  0  0  0  0  0  0999 V2000     
   20.4785   21.0369   21.7754 C   0  0  0  0  0  0  0  0  0  0  0  0
   21.3968   20.5095   21.4835 H   0  0  0  0  0  0  0  0  0  0  0  0
   20.5163   22.0131   21.2729 H   0  0  0  0  0  0  0  0  0  0  0  0
   20.4495   21.2950   23.3012 C   0  0  0  0  0  0  0  0  0  0  0  0
   21.2273   22.0311   23.5464 H   0  0  0  0  0  0  0  0  0  0  0  0
   19.4955   21.7673   23.5726 H   0  0  0  0  0  0  0  0  0  0  0  0
   20.6716   20.0464   24.1854 C   0  0  0  0  0  0  0  0  0  0  0  0
   20.5611   20.3469   25.2363 H   0  0  0  0  0  0  0  0  0  0  0  0
   21.7102   19.7042   24.0794 H   0  0  0  0  0  0  0  0  0  0  0  0
   19.7089   18.8667   23.9050 C   0  0  0  0  0  0  0  0  0  0  0  0
   19.8106   18.1515   24.7318 H   0  0  0  0  0  0  0  0  0  0  0  0
   18.6652   19.2063   23.9216 H   0  0  0  0  0  0  0  0  0  0  0  0
   20.0220   18.1443   22.5754 C   0  0  0  0  0  0  0  0  0  0  0  0
   21.1075   18.1892   22.4067 H   0  0  0  0  0  0  0  0  0  0  0  0
   19.3138   18.7416   21.3381 C   0  0  0  0  0  0  0  0  0  0  0  0
   19.8415   18.3782   20.4468 H   0  0  0  0  0  0  0  0  0  0  0  0
   18.2955   18.3357   21.2710 H   0  0  0  0  0  0  0  0  0  0  0  0
   19.2248   20.2867   21.2680 C   0  0  0  0  0  0  0  0  0  0  0  0
   19.0389   20.5688   20.2227 H   0  0  0  0  0  0  0  0  0  0  0  0
   18.3431   20.6296   21.8263 H   0  0  0  0  0  0  0  0  0  0  0  0
   19.6320   16.7814   22.6913 O   0  0  0  0  0  0  0  0  0  0  0  0
   20.1484   16.4021   23.4330 H   0  0  0  0  0  0  0  0  0  0  0  0
  1  2  1  0  0  0  0
  1  3  1  0  0  0  0
  1  4  1  0  0  0  0
  4  5  1  0  0  0  0
  4  6  1  0  0  0  0
  4  7  1  0  0  0  0
  7  8  1  0  0  0  0
  7  9  1  0  0  0  0
  7 10  1  0  0  0  0
 10 11  1  0  0  0  0
 10 12  1  0  0  0  0
 10 13  1  0  0  0  0
 13 14  1  0  0  0  0
 13 15  1  0  0  0  0
 15 16  1  0  0  0  0
 15 17  1  0  0  0  0
  1 18  1  0  0  0  0
 15 18  1  0  0  0  0
 18 19  1  0  0  0  0
 18 20  1  0  0  0  0
 13 21  1  0  0  0  0
 21 22  1  0  0  0  0
M  END
> <VConfSearch Rank>
586

> <Conf_Id>
144

> <Delta U+W>
-3.291

> <U+W>
3.132

> <U>
5.411

> <W>
-2.279

> <W(PB)>
-4.300

> <W(SA)>
2.021

> <Valence>
11.909

> <Coulomb>
-8.733

> <VdW>
2.236

> <VdW6>
-8.936

> <VdW12>
11.172

> <Bond>
0.223

> <Angle>
2.457

> <Pdih>
9.228

> <Idih>
0.000

> <Tether>
0.000

$$$$
VeraChem MOL file


 22 22  0  0  0  0  0  0  0  0999 V2000     
   19.2814   20.9629   21.8905 C   0  0  0  0  0  0  0  0  0  0  0  0
   18.6166   21.7640   21.5398 H   0  0  0  0  0  0  0  0  0  0  0  0
   20.2735   21.1878   21.4759 H   0  0  0  0  0  0  0  0  0  0  0  0
   18.7453   19.6208   21.3396 C   0  0  0  0  0  0  0  0  0  0  0  0
   17.9367   19.2564   21.9879 H   0  0  0  0  0  0  0  0  0  0  0  0
   18.2782   19.7995   20.3614 H   0  0  0  0  0  0  0  0  0  0  0  0
   19.8100   18.5112   21.1638 C   0  0  0  0  0  0  0  0  0  0  0  0
   20.3177   18.6524   20.1999 H   0  0  0  0  0  0  0  0  0  0  0  0
   19.2897   17.5465   21.0882 H   0  0  0  0  0  0  0  0  0  0  0  0
   20.8910   18.4155   22.2685 C   0  0  0  0  0  0  0  0  0  0  0  0
   21.3525   17.4210   22.2017 H   0  0  0  0  0  0  0  0  0  0  0  0
   21.6939   19.1315   22.0501 H   0  0  0  0  0  0  0  0  0  0  0  0
   20.3756   18.6491   23.7064 C   0  0  0  0  0  0  0  0  0  0  0  0
   19.3542   18.2536   23.8002 H   0  0  0  0  0  0  0  0  0  0  0  0
   20.3924   20.1419   24.1067 C   0  0  0  0  0  0  0  0  0  0  0  0
   20.2640   20.2156   25.1949 H   0  0  0  0  0  0  0  0  0  0  0  0
   21.3800   20.5686   23.8883 H   0  0  0  0  0  0  0  0  0  0  0  0
   19.3038   21.0138   23.4371 C   0  0  0  0  0  0  0  0  0  0  0  0
   18.3173   20.7266   23.8259 H   0  0  0  0  0  0  0  0  0  0  0  0
   19.4574   22.0553   23.7510 H   0  0  0  0  0  0  0  0  0  0  0  0
   21.2242   17.9469   24.6048 O   0  0  0  0  0  0  0  0  0  0  0  0
   22.1206   18.3246   24.4909 H   0  0  0  0  0  0  0  0  0  0  0  0
  1  2  1  0  0  0  0
  1  3  1  0  0  0  0
  1  4  1  0  0  0  0
  4  5  1  0  0  0  0
  4  6  1  0  0  0  0
  4  7  1  0  0  0  0
  7  8  1  0  0  0  0
  7  9  1  0  0  0  0
  7 10  1  0  0  0  0
 10 11  1  0  0  0  0
 10 12  1  0  0  0  0
 10 13  1  0  0  0  0
 13 14  1  0  0  0  0
 13 15  1  0  0  0  0
 15 16  1  0  0  0  0
 15 17  1  0  0  0  0
  1 18  1  0  0  0  0
 15 18  1  0  0  0  0
 18 19  1  0  0  0  0
 18 20  1  0  0  0  0
 13 21  1  0  0  0  0
 21 22  1  0  0  0  0
M  END
> <VConfSearch Rank>
587

> <Conf_Id>
76

> <Delta U+W>
-3.175

> <U+W>
3.248

> <U>
5.336

> <W>
-2.088

> <W(PB)>
-4.098

> <W(SA)>
2.010

> <Valence>
12.390

> <Coulomb>
-9.270

> <VdW>
2.216

> <VdW6>
-8.967

> <VdW12>
11.183

> <Bond>
0.218

> <Angle>
2.426

> <Pdih>
9.745

> <Idih>
0.000

> <Tether>
0.000

$$$$
VeraChem MOL file


 22 22  0  0  0  0  0  0  0  0999 V2000     
   18.9138   18.4396   21.7216 C   0  0  0  0  0  0  0  0  0  0  0  0
   17.8502   18.2512   21.9215 H   0  0  0  0  0  0  0  0  0  0  0  0
   19.1419   17.9027   20.7907 H   0  0  0  0  0  0  0  0  0  0  0  0
   19.7400   17.8190   22.8736 C   0  0  0  0  0  0  0  0  0  0  0  0
   19.1976   17.9412   23.8209 H   0  0  0  0  0  0  0  0  0  0  0  0
   19.7963   16.7349   22.7052 H   0  0  0  0  0  0  0  0  0  0  0  0
   21.1736   18.3786   23.0258 C   0  0  0  0  0  0  0  0  0  0  0  0
   21.6221   18.5845   22.0443 H   0  0  0  0  0  0  0  0  0  0  0  0
   21.7961   17.6007   23.4881 H   0  0  0  0  0  0  0  0  0  0  0  0
   21.2347   19.6333   23.9337 C   0  0  0  0  0  0  0  0  0  0  0  0
   20.7168   19.4210   24.8778 H   0  0  0  0  0  0  0  0  0  0  0  0
   22.2821   19.8171   24.2071 H   0  0  0  0  0  0  0  0  0  0  0  0
   20.6627   20.9383   23.3348 C   0  0  0  0  0  0  0  0  0  0  0  0
   20.6146   21.6691   24.1551 H   0  0  0  0  0  0  0  0  0  0  0  0
   19.2353   20.8220   22.7437 C   0  0  0  0  0  0  0  0  0  0  0  0
   18.5433   20.4538   23.5120 H   0  0  0  0  0  0  0  0  0  0  0  0
   18.8942   21.8365   22.5001 H   0  0  0  0  0  0  0  0  0  0  0  0
   19.1203   19.9515   21.4653 C   0  0  0  0  0  0  0  0  0  0  0  0
   18.2716   20.3110   20.8679 H   0  0  0  0  0  0  0  0  0  0  0  0
   20.0044   20.0958   20.8305 H   0  0  0  0  0  0  0  0  0  0  0  0
   21.5618   21.4365   22.3492 O   0  0  0  0  0  0  0  0  0  0  0  0
   21.1389   22.2296   21.9614 H   0  0  0  0  0  0  0  0  0  0  0  0
  1  2  1  0  0  0  0
  1  3  1  0  0  0  0
  1  4  1  0  0  0  0
  4  5  1  0  0  0  0
  4  6  1  0  0  0  0
  4  7  1  0  0  0  0
  7  8  1  0  0  0  0
  7  9  1  0  0  0  0
  7 10  1  0  0  0  0
 10 11  1  0  0  0  0
 10 12  1  0  0  0  0
 10 13  1  0  0  0  0
 13 14  1  0  0  0  0
 13 15  1  0  0  0  0
 15 16  1  0  0  0  0
 15 17  1  0  0  0  0
  1 18  1  0  0  0  0
 15 18  1  0  0  0  0
 18 19  1  0  0  0  0
 18 20  1  0  0  0  0
 13 21  1  0  0  0  0
 21 22  1  0  0  0  0
M  END
> <VConfSearch Rank>
588

> <Conf_Id>
95

> <Delta U+W>
-2.289

> <U+W>
4.134

> <U>
6.373

> <W>
-2.240

> <W(PB)>
-4.254

> <W(SA)>
2.015

> <Valence>
12.093

> <Coulomb>
-8.058

> <VdW>
2.339

> <VdW6>
-9.683

> <VdW12>
12.022

> <Bond>
0.268

> <Angle>
3.005

> <Pdih>
8.820

> <Idih>
0.000

> <Tether>
0.000

$$$$
VeraChem MOL file


 22 22  0  0  0  0  0  0  0  0999 V2000     
   20.7837   17.8683   22.8003 C   0  0  0  0  0  0  0  0  0  0  0  0
   21.6465   17.4677   22.2510 H   0  0  0  0  0  0  0  0  0  0  0  0
   20.4447   17.0553   23.4567 H   0  0  0  0  0  0  0  0  0  0  0  0
   19.6655   18.1870   21.7793 C   0  0  0  0  0  0  0  0  0  0  0  0
   20.1147   18.5626   20.8500 H   0  0  0  0  0  0  0  0  0  0  0  0
   19.1753   17.2423   21.5071 H   0  0  0  0  0  0  0  0  0  0  0  0
   18.5925   19.1854   22.2727 C   0  0  0  0  0  0  0  0  0  0  0  0
   18.3668   19.0264   23.3360 H   0  0  0  0  0  0  0  0  0  0  0  0
   17.6606   18.9795   21.7291 H   0  0  0  0  0  0  0  0  0  0  0  0
   18.9805   20.6612   22.0029 C   0  0  0  0  0  0  0  0  0  0  0  0
   19.2823   20.7667   20.9528 H   0  0  0  0  0  0  0  0  0  0  0  0
   18.0842   21.2853   22.1122 H   0  0  0  0  0  0  0  0  0  0  0  0
   20.0950   21.2481   22.8991 C   0  0  0  0  0  0  0  0  0  0  0  0
   20.3673   22.2231   22.4697 H   0  0  0  0  0  0  0  0  0  0  0  0
   21.3930   20.4054   22.9716 C   0  0  0  0  0  0  0  0  0  0  0  0
   21.8011   20.2585   21.9635 H   0  0  0  0  0  0  0  0  0  0  0  0
   22.1379   21.0032   23.5124 H   0  0  0  0  0  0  0  0  0  0  0  0
   21.2536   19.0404   23.6946 C   0  0  0  0  0  0  0  0  0  0  0  0
   22.2270   18.7678   24.1239 H   0  0  0  0  0  0  0  0  0  0  0  0
   20.5762   19.1402   24.5530 H   0  0  0  0  0  0  0  0  0  0  0  0
   19.5807   21.4684   24.2090 O   0  0  0  0  0  0  0  0  0  0  0  0
   18.7573   21.9874   24.1045 H   0  0  0  0  0  0  0  0  0  0  0  0
  1  2  1  0  0  0  0
  1  3  1  0  0  0  0
  1  4  1  0  0  0  0
  4  5  1  0  0  0  0
  4  6  1  0  0  0  0
  4  7  1  0  0  0  0
  7  8  1  0  0  0  0
  7  9  1  0  0  0  0
  7 10  1  0  0  0  0
 10 11  1  0  0  0  0
 10 12  1  0  0  0  0
 10 13  1  0  0  0  0
 13 14  1  0  0  0  0
 13 15  1  0  0  0  0
 15 16  1  0  0  0  0
 15 17  1  0  0  0  0
  1 18  1  0  0  0  0
 15 18  1  0  0  0  0
 18 19  1  0  0  0  0
 18 20  1  0  0  0  0
 13 21  1  0  0  0  0
 21 22  1  0  0  0  0
M  END
> <VConfSearch Rank>
589

> <Conf_Id>
41

> <Delta U+W>
-2.114

> <U+W>
4.310

> <U>
6.598

> <W>
-2.289

> <W(PB)>
-4.294

> <W(SA)>
2.005

> <Valence>
12.082

> <Coulomb>
-7.801

> <VdW>
2.317

> <VdW6>
-9.658

> <VdW12>
11.975

> <Bond>
0.267

> <Angle>
3.051

> <Pdih>
8.764

> <Idih>
0.000

> <Tether>
0.000

$$$$
VeraChem MOL file


 22 22  0  0  0  0  0  0  0  0999 V2000     
   21.6306   19.3060   23.2945 C   0  0  0  0  0  0  0  0  0  0  0  0
   22.6021   18.9038   23.6125 H   0  0  0  0  0  0  0  0  0  0  0  0
   21.7720   20.3881   23.1672 H   0  0  0  0  0  0  0  0  0  0  0  0
   20.6080   19.0168   24.4161 C   0  0  0  0  0  0  0  0  0  0  0  0
   20.4345   17.9343   24.4851 H   0  0  0  0  0  0  0  0  0  0  0  0
   21.0488   19.3129   25.3776 H   0  0  0  0  0  0  0  0  0  0  0  0
   19.2559   19.7464   24.2590 C   0  0  0  0  0  0  0  0  0  0  0  0
   19.4039   20.8250   24.4027 H   0  0  0  0  0  0  0  0  0  0  0  0
   18.6017   19.4273   25.0814 H   0  0  0  0  0  0  0  0  0  0  0  0
   18.5173   19.4857   22.9182 C   0  0  0  0  0  0  0  0  0  0  0  0
   18.4375   18.4065   22.7358 H   0  0  0  0  0  0  0  0  0  0  0  0
   17.4862   19.8440   23.0320 H   0  0  0  0  0  0  0  0  0  0  0  0
   19.1095   20.1881   21.6692 C   0  0  0  0  0  0  0  0  0  0  0  0
   18.3252   20.1748   20.8985 H   0  0  0  0  0  0  0  0  0  0  0  0
   20.3496   19.5070   21.0340 C   0  0  0  0  0  0  0  0  0  0  0  0
   20.0008   18.8649   20.2147 H   0  0  0  0  0  0  0  0  0  0  0  0
   20.9722   20.2735   20.5541 H   0  0  0  0  0  0  0  0  0  0  0  0
   21.2483   18.6428   21.9528 C   0  0  0  0  0  0  0  0  0  0  0  0
   20.7669   17.6737   22.1410 H   0  0  0  0  0  0  0  0  0  0  0  0
   22.1693   18.4116   21.4004 H   0  0  0  0  0  0  0  0  0  0  0  0
   19.4066   21.5516   21.9582 O   0  0  0  0  0  0  0  0  0  0  0  0
   19.7370   21.9510   21.1280 H   0  0  0  0  0  0  0  0  0  0  0  0
  1  2  1  0  0  0  0
  1  3  1  0  0  0  0
  1  4  1  0  0  0  0
  4  5  1  0  0  0  0
  4  6  1  0  0  0  0
  4  7  1  0  0  0  0
  7  8  1  0  0  0  0
  7  9  1  0  0  0  0
  7 10  1  0  0  0  0
 10 11  1  0  0  0  0
 10 12  1  0  0  0  0
 10 13  1  0  0  0  0
 13 14  1  0  0  0  0
 13 15  1  0  0  0  0
 15 16  1  0  0  0  0
 15 17  1  0  0  0  0
  1 18  1  0  0  0  0
 15 18  1  0  0  0  0
 18 19  1  0  0  0  0
 18 20  1  0  0  0  0
 13 21  1  0  0  0  0
 21 22  1  0  0  0  0
M  END
> <VConfSearch Rank>
590

> <Conf_Id>
104

> <Delta U+W>
-1.172

> <U+W>
5.252

> <U>
7.482

> <W>
-2.230

> <W(PB)>
-4.220

> <W(SA)>
1.990

> <Valence>
12.309

> <Coulomb>
-7.084

> <VdW>
2.258

> <VdW6>
-9.770

> <VdW12>
12.028

> <Bond>
0.284

> <Angle>
3.491

> <Pdih>
8.535

> <Idih>
0.000

> <Tether>
0.000

$$$$
VeraChem MOL file


 22 22  0  0  0  0  0  0  0  0999 V2000     
   20.6382   18.5307   21.5469 C   0  0  0  0  0  0  0  0  0  0  0  0
   20.5568   17.6694   22.2236 H   0  0  0  0  0  0  0  0  0  0  0  0
   21.0587   18.1402   20.6101 H   0  0  0  0  0  0  0  0  0  0  0  0
   21.6248   19.5811   22.1063 C   0  0  0  0  0  0  0  0  0  0  0  0
   22.6497   19.2475   21.8931 H   0  0  0  0  0  0  0  0  0  0  0  0
   21.5104   20.5203   21.5494 H   0  0  0  0  0  0  0  0  0  0  0  0
   21.5242   19.8531   23.6286 C   0  0  0  0  0  0  0  0  0  0  0  0
   21.9027   20.8654   23.8268 H   0  0  0  0  0  0  0  0  0  0  0  0
   22.2161   19.1767   24.1488 H   0  0  0  0  0  0  0  0  0  0  0  0
   20.1282   19.6928   24.2894 C   0  0  0  0  0  0  0  0  0  0  0  0
   19.9296   18.6259   24.4543 H   0  0  0  0  0  0  0  0  0  0  0  0
   20.1756   20.1350   25.2930 H   0  0  0  0  0  0  0  0  0  0  0  0
   18.9222   20.3133   23.5474 C   0  0  0  0  0  0  0  0  0  0  0  0
   18.1258   20.4677   24.2896 H   0  0  0  0  0  0  0  0  0  0  0  0
   18.3434   19.3818   22.4585 C   0  0  0  0  0  0  0  0  0  0  0  0
   18.0815   18.4211   22.9206 H   0  0  0  0  0  0  0  0  0  0  0  0
   17.3947   19.8106   22.1104 H   0  0  0  0  0  0  0  0  0  0  0  0
   19.2428   19.1170   21.2257 C   0  0  0  0  0  0  0  0  0  0  0  0
   18.7150   18.4114   20.5698 H   0  0  0  0  0  0  0  0  0  0  0  0
   19.3521   20.0394   20.6394 H   0  0  0  0  0  0  0  0  0  0  0  0
   19.2754   21.5663   22.9823 O   0  0  0  0  0  0  0  0  0  0  0  0
   20.0359   21.3608   22.4030 H   0  0  0  0  0  0  0  0  0  0  0  0
  1  2  1  0  0  0  0
  1  3  1  0  0  0  0
  1  4  1  0  0  0  0
  4  5  1  0  0  0  0
  4  6  1  0  0  0  0
  4  7  1  0  0  0  0
  7  8  1  0  0  0  0
  7  9  1  0  0  0  0
  7 10  1  0  0  0  0
 10 11  1  0  0  0  0
 10 12  1  0  0  0  0
 10 13  1  0  0  0  0
 13 14  1  0  0  0  0
 13 15  1  0  0  0  0
 15 16  1  0  0  0  0
 15 17  1  0  0  0  0
  1 18  1  0  0  0  0
 15 18  1  0  0  0  0
 18 19  1  0  0  0  0
 18 20  1  0  0  0  0
 13 21  1  0  0  0  0
 21 22  1  0  0  0  0
M  END
> <VConfSearch Rank>
591

> <Conf_Id>
99

> <Delta U+W>
-3.852

> <U+W>
2.572

> <U>
3.922

> <W>
-1.350

> <W(PB)>
-3.345

> <W(SA)>
1.995

> <Valence>
12.571

> <Coulomb>
-10.581

> <VdW>
1.932

> <VdW6>
-10.483

> <VdW12>
12.415

> <Bond>
0.268

> <Angle>
3.728

> <Pdih>
8.575

> <Idih>
0.000

> <Tether>
0.000

$$$$
VeraChem MOL file


 22 22  0  0  0  0  0  0  0  0999 V2000     
   19.9775   18.3186   21.6059 C   0  0  0  0  0  0  0  0  0  0  0  0
   19.7471   17.2717   21.3643 H   0  0  0  0  0  0  0  0  0  0  0  0
   20.2953   18.7654   20.6544 H   0  0  0  0  0  0  0  0  0  0  0  0
   21.1570   18.3255   22.6221 C   0  0  0  0  0  0  0  0  0  0  0  0
   21.4372   17.2817   22.8202 H   0  0  0  0  0  0  0  0  0  0  0  0
   22.0480   18.7758   22.1646 H   0  0  0  0  0  0  0  0  0  0  0  0
   20.8741   19.0054   23.9861 C   0  0  0  0  0  0  0  0  0  0  0  0
   21.7033   18.7724   24.6679 H   0  0  0  0  0  0  0  0  0  0  0  0
   19.9950   18.5452   24.4540 H   0  0  0  0  0  0  0  0  0  0  0  0
   20.7039   20.5497   23.9552 C   0  0  0  0  0  0  0  0  0  0  0  0
   20.1389   20.8504   24.8469 H   0  0  0  0  0  0  0  0  0  0  0  0
   21.6942   21.0101   24.0704 H   0  0  0  0  0  0  0  0  0  0  0  0
   20.0347   21.1877   22.7129 C   0  0  0  0  0  0  0  0  0  0  0  0
   19.8029   22.2300   22.9749 H   0  0  0  0  0  0  0  0  0  0  0  0
   18.7114   20.5382   22.2381 C   0  0  0  0  0  0  0  0  0  0  0  0
   17.9109   20.8377   22.9267 H   0  0  0  0  0  0  0  0  0  0  0  0
   18.4484   20.9912   21.2729 H   0  0  0  0  0  0  0  0  0  0  0  0
   18.6659   18.9926   22.0834 C   0  0  0  0  0  0  0  0  0  0  0  0
   18.3362   18.5358   23.0248 H   0  0  0  0  0  0  0  0  0  0  0  0
   17.8705   18.7501   21.3656 H   0  0  0  0  0  0  0  0  0  0  0  0
   20.9606   21.2220   21.6383 O   0  0  0  0  0  0  0  0  0  0  0  0
   21.1329   20.2787   21.4445 H   0  0  0  0  0  0  0  0  0  0  0  0
  1  2  1  0  0  0  0
  1  3  1  0  0  0  0
  1  4  1  0  0  0  0
  4  5  1  0  0  0  0
  4  6  1  0  0  0  0
  4  7  1  0  0  0  0
  7  8  1  0  0  0  0
  7  9  1  0  0  0  0
  7 10  1  0  0  0  0
 10 11  1  0  0  0  0
 10 12  1  0  0  0  0
 10 13  1  0  0  0  0
 13 14  1  0  0  0  0
 13 15  1  0  0  0  0
 15 16  1  0  0  0  0
 15 17  1  0  0  0  0
  1 18  1  0  0  0  0
 15 18  1  0  0  0  0
 18 19  1  0  0  0  0
 18 20  1  0  0  0  0
 13 21  1  0  0  0  0
 21 22  1  0  0  0  0
M  END
> <VConfSearch Rank>
592

> <Conf_Id>
98

> <Delta U+W>
0.930

> <U+W>
7.353

> <U>
8.455

> <W>
-1.102

> <W(PB)>
-3.101

> <W(SA)>
2.000

> <Valence>
15.601

> <Coulomb>
-10.573

> <VdW>
3.427

> <VdW6>
-11.360

> <VdW12>
14.787

> <Bond>
0.471

> <Angle>
5.445

> <Pdih>
9.685

> <Idih>
0.000

> <Tether>
0.000

$$$$
VeraChem MOL file


 22 22  0  0  0  0  0  0  0  0999 V2000     
   21.4747   20.4416   22.6933 C   0  0  0  0  0  0  0  0  0  0  0  0
   21.5239   20.2193   23.7670 H   0  0  0  0  0  0  0  0  0  0  0  0
   22.3933   21.0037   22.4761 H   0  0  0  0  0  0  0  0  0  0  0  0
   20.2570   21.3554   22.4027 C   0  0  0  0  0  0  0  0  0  0  0  0
   20.3850   22.2740   22.9914 H   0  0  0  0  0  0  0  0  0  0  0  0
   20.2769   21.6710   21.3507 H   0  0  0  0  0  0  0  0  0  0  0  0
   18.8591   20.7615   22.7312 C   0  0  0  0  0  0  0  0  0  0  0  0
   18.3582   20.4447   21.8072 H   0  0  0  0  0  0  0  0  0  0  0  0
   18.2299   21.5680   23.1316 H   0  0  0  0  0  0  0  0  0  0  0  0
   18.8660   19.5866   23.7447 C   0  0  0  0  0  0  0  0  0  0  0  0
   19.4231   19.8875   24.6407 H   0  0  0  0  0  0  0  0  0  0  0  0
   17.8370   19.4261   24.0937 H   0  0  0  0  0  0  0  0  0  0  0  0
   19.4357   18.2370   23.2176 C   0  0  0  0  0  0  0  0  0  0  0  0
   20.1214   17.8382   23.9792 H   0  0  0  0  0  0  0  0  0  0  0  0
   20.1968   18.3037   21.8698 C   0  0  0  0  0  0  0  0  0  0  0  0
   20.4394   17.2827   21.5477 H   0  0  0  0  0  0  0  0  0  0  0  0
   19.5338   18.6986   21.0907 H   0  0  0  0  0  0  0  0  0  0  0  0
   21.5131   19.1202   21.8901 C   0  0  0  0  0  0  0  0  0  0  0  0
   22.3144   18.4925   22.3033 H   0  0  0  0  0  0  0  0  0  0  0  0
   21.8045   19.3370   20.8534 H   0  0  0  0  0  0  0  0  0  0  0  0
   18.3554   17.3256   23.0525 O   0  0  0  0  0  0  0  0  0  0  0  0
   18.7465   16.4706   22.7765 H   0  0  0  0  0  0  0  0  0  0  0  0
  1  2  1  0  0  0  0
  1  3  1  0  0  0  0
  1  4  1  0  0  0  0
  4  5  1  0  0  0  0
  4  6  1  0  0  0  0
  4  7  1  0  0  0  0
  7  8  1  0  0  0  0
  7  9  1  0  0  0  0
  7 10  1  0  0  0  0
 10 11  1  0  0  0  0
 10 12  1  0  0  0  0
 10 13  1  0  0  0  0
 13 14  1  0  0  0  0
 13 15  1  0  0  0  0
 15 16  1  0  0  0  0
 15 17  1  0  0  0  0
  1 18  1  0  0  0  0
 15 18  1  0  0  0  0
 18 19  1  0  0  0  0
 18 20  1  0  0  0  0
 13 21  1  0  0  0  0
 21 22  1  0  0  0  0
M  END
> <VConfSearch Rank>
593

> <Conf_Id>
141

> <Delta U+W>
0.000

> <U+W>
6.423

> <U>
8.781

> <W>
-2.358

> <W(PB)>
-4.373

> <W(SA)>
2.015

> <Valence>
13.328

> <Coulomb>
-8.387

> <VdW>
3.840

> <VdW6>
-9.744

> <VdW12>
13.584

> <Bond>
0.436

> <Angle>
3.478

> <Pdih>
9.415

> <Idih>
0.000

> <Tether>
0.000

$$$$
VeraChem MOL file


 22 22  0  0  0  0  0  0  0  0999 V2000     
   20.3045   20.6048   24.0615 C   0  0  0  0  0  0  0  0  0  0  0  0
   19.4779   20.0995   24.5791 H   0  0  0  0  0  0  0  0  0  0  0  0
   20.7439   21.2961   24.7936 H   0  0  0  0  0  0  0  0  0  0  0  0
   19.7809   21.4487   22.8743 C   0  0  0  0  0  0  0  0  0  0  0  0
   19.2057   22.2952   23.2735 H   0  0  0  0  0  0  0  0  0  0  0  0
   20.6318   21.8920   22.3393 H   0  0  0  0  0  0  0  0  0  0  0  0
   18.8852   20.6883   21.8693 C   0  0  0  0  0  0  0  0  0  0  0  0
   18.6372   21.3722   21.0461 H   0  0  0  0  0  0  0  0  0  0  0  0
   17.9291   20.4382   22.3493 H   0  0  0  0  0  0  0  0  0  0  0  0
   19.5141   19.4052   21.2733 C   0  0  0  0  0  0  0  0  0  0  0  0
   18.8932   19.0956   20.4224 H   0  0  0  0  0  0  0  0  0  0  0  0
   20.5103   19.6166   20.8635 H   0  0  0  0  0  0  0  0  0  0  0  0
   19.5829   18.2457   22.2924 C   0  0  0  0  0  0  0  0  0  0  0  0
   18.7177   18.3277   22.9658 H   0  0  0  0  0  0  0  0  0  0  0  0
   20.8668   18.2227   23.1529 C   0  0  0  0  0  0  0  0  0  0  0  0
   20.6691   17.5873   24.0258 H   0  0  0  0  0  0  0  0  0  0  0  0
   21.6700   17.7242   22.5939 H   0  0  0  0  0  0  0  0  0  0  0  0
   21.3972   19.5926   23.6447 C   0  0  0  0  0  0  0  0  0  0  0  0
   22.0613   19.4119   24.5009 H   0  0  0  0  0  0  0  0  0  0  0  0
   22.0330   20.0405   22.8689 H   0  0  0  0  0  0  0  0  0  0  0  0
   19.5014   17.0120   21.5892 O   0  0  0  0  0  0  0  0  0  0  0  0
   18.6459   17.0156   21.1110 H   0  0  0  0  0  0  0  0  0  0  0  0
  1  2  1  0  0  0  0
  1  3  1  0  0  0  0
  1  4  1  0  0  0  0
  4  5  1  0  0  0  0
  4  6  1  0  0  0  0
  4  7  1  0  0  0  0
  7  8  1  0  0  0  0
  7  9  1  0  0  0  0
  7 10  1  0  0  0  0
 10 11  1  0  0  0  0
 10 12  1  0  0  0  0
 10 13  1  0  0  0  0
 13 14  1  0  0  0  0
 13 15  1  0  0  0  0
 15 16  1  0  0  0  0
 15 17  1  0  0  0  0
  1 18  1  0  0  0  0
 15 18  1  0  0  0  0
 18 19  1  0  0  0  0
 18 20  1  0  0  0  0
 13 21  1  0  0  0  0
 21 22  1  0  0  0  0
M  END
> <VConfSearch Rank>
594

> <Conf_Id>
144

> <Delta U+W>
-3.291

> <U+W>
3.132

> <U>
5.411

> <W>
-2.279

> <W(PB)>
-4.300

> <W(SA)>
2.021

> <Valence>
11.909

> <Coulomb>
-8.733

> <VdW>
2.236

> <VdW6>
-8.936

> <VdW12>
11.172

> <Bond>
0.223

> <Angle>
2.457

> <Pdih>
9.228

> <Idih>
0.000

> <Tether>
0.000

$$$$
VeraChem MOL file


 22 22  0  0  0  0  0  0  0  0999 V2000     
   19.4460   20.9814   23.5011 C   0  0  0  0  0  0  0  0  0  0  0  0
   19.0716   21.9801   23.7647 H   0  0  0  0  0  0  0  0  0  0  0  0
   19.7072   20.4945   24.4505 H   0  0  0  0  0  0  0  0  0  0  0  0
   20.6978   21.1596   22.6104 C   0  0  0  0  0  0  0  0  0  0  0  0
   20.3856   21.3349   21.5719 H   0  0  0  0  0  0  0  0  0  0  0  0
   21.2242   22.0741   22.9162 H   0  0  0  0  0  0  0  0  0  0  0  0
   21.7092   19.9888   22.6581 C   0  0  0  0  0  0  0  0  0  0  0  0
   22.3659   20.1191   23.5292 H   0  0  0  0  0  0  0  0  0  0  0  0
   22.3627   20.0650   21.7782 H   0  0  0  0  0  0  0  0  0  0  0  0
   21.1073   18.5632   22.7170 C   0  0  0  0  0  0  0  0  0  0  0  0
   21.8905   17.8552   22.4141 H   0  0  0  0  0  0  0  0  0  0  0  0
   20.8690   18.3154   23.7594 H   0  0  0  0  0  0  0  0  0  0  0  0
   19.8523   18.3493   21.8413 C   0  0  0  0  0  0  0  0  0  0  0  0
   19.9352   18.9518   20.9256 H   0  0  0  0  0  0  0  0  0  0  0  0
   18.5445   18.7093   22.5823 C   0  0  0  0  0  0  0  0  0  0  0  0
   17.6960   18.3032   22.0154 H   0  0  0  0  0  0  0  0  0  0  0  0
   18.5258   18.2064   23.5579 H   0  0  0  0  0  0  0  0  0  0  0  0
   18.3011   20.2234   22.7873 C   0  0  0  0  0  0  0  0  0  0  0  0
   18.1017   20.6949   21.8153 H   0  0  0  0  0  0  0  0  0  0  0  0
   17.3804   20.3465   23.3739 H   0  0  0  0  0  0  0  0  0  0  0  0
   19.7866   16.9755   21.4827 O   0  0  0  0  0  0  0  0  0  0  0  0
   19.7156   16.4739   22.3209 H   0  0  0  0  0  0  0  0  0  0  0  0
  1  2  1  0  0  0  0
  1  3  1  0  0  0  0
  1  4  1  0  0  0  0
  4  5  1  0  0  0  0
  4  6  1  0  0  0  0
  4  7  1  0  0  0  0
  7  8  1  0  0  0  0
  7  9  1  0  0  0  0
  7 10  1  0  0  0  0
 10 11  1  0  0  0  0
 10 12  1  0  0  0  0
 10 13  1  0  0  0  0
 13 14  1  0  0  0  0
 13 15  1  0  0  0  0
 15 16  1  0  0  0  0
 15 17  1  0  0  0  0
  1 18  1  0  0  0  0
 15 18  1  0  0  0  0
 18 19  1  0  0  0  0
 18 20  1  0  0  0  0
 13 21  1  0  0  0  0
 21 22  1  0  0  0  0
M  END
> <VConfSearch Rank>
595

> <Conf_Id>
76

> <Delta U+W>
-3.175

> <U+W>
3.248

> <U>
5.336

> <W>
-2.088

> <W(PB)>
-4.098

> <W(SA)>
2.010

> <Valence>
12.390

> <Coulomb>
-9.270

> <VdW>
2.216

> <VdW6>
-8.967

> <VdW12>
11.183

> <Bond>
0.218

> <Angle>
2.426

> <Pdih>
9.745

> <Idih>
0.000

> <Tether>
0.000

$$$$
VeraChem MOL file


 22 22  0  0  0  0  0  0  0  0999 V2000     
   20.1305   17.8160   23.3807 C   0  0  0  0  0  0  0  0  0  0  0  0
   19.4768   17.3837   24.1505 H   0  0  0  0  0  0  0  0  0  0  0  0
   20.7748   16.9938   23.0408 H   0  0  0  0  0  0  0  0  0  0  0  0
   21.0108   18.9006   24.0465 C   0  0  0  0  0  0  0  0  0  0  0  0
   20.4259   19.4286   24.8118 H   0  0  0  0  0  0  0  0  0  0  0  0
   21.8187   18.3942   24.5920 H   0  0  0  0  0  0  0  0  0  0  0  0
   21.6305   19.9293   23.0722 C   0  0  0  0  0  0  0  0  0  0  0  0
   21.9262   19.4496   22.1291 H   0  0  0  0  0  0  0  0  0  0  0  0
   22.5563   20.3113   23.5230 H   0  0  0  0  0  0  0  0  0  0  0  0
   20.7004   21.1402   22.8066 C   0  0  0  0  0  0  0  0  0  0  0  0
   20.3641   21.5540   23.7659 H   0  0  0  0  0  0  0  0  0  0  0  0
   21.2890   21.9365   22.3324 H   0  0  0  0  0  0  0  0  0  0  0  0
   19.4634   20.8699   21.9201 C   0  0  0  0  0  0  0  0  0  0  0  0
   18.8270   21.7645   21.9827 H   0  0  0  0  0  0  0  0  0  0  0  0
   18.5948   19.6616   22.3513 C   0  0  0  0  0  0  0  0  0  0  0  0
   18.2627   19.7937   23.3892 H   0  0  0  0  0  0  0  0  0  0  0  0
   17.6807   19.6775   21.7439 H   0  0  0  0  0  0  0  0  0  0  0  0
   19.2659   18.2737   22.1819 C   0  0  0  0  0  0  0  0  0  0  0  0
   18.4832   17.5196   22.0234 H   0  0  0  0  0  0  0  0  0  0  0  0
   19.8737   18.2582   21.2676 H   0  0  0  0  0  0  0  0  0  0  0  0
   19.8798   20.7156   20.5670 O   0  0  0  0  0  0  0  0  0  0  0  0
   19.0771   20.4957   20.0516 H   0  0  0  0  0  0  0  0  0  0  0  0
  1  2  1  0  0  0  0
  1  3  1  0  0  0  0
  1  4  1  0  0  0  0
  4  5  1  0  0  0  0
  4  6  1  0  0  0  0
  4  7  1  0  0  0  0
  7  8  1  0  0  0  0
  7  9  1  0  0  0  0
  7 10  1  0  0  0  0
 10 11  1  0  0  0  0
 10 12  1  0  0  0  0
 10 13  1  0  0  0  0
 13 14  1  0  0  0  0
 13 15  1  0  0  0  0
 15 16  1  0  0  0  0
 15 17  1  0  0  0  0
  1 18  1  0  0  0  0
 15 18  1  0  0  0  0
 18 19  1  0  0  0  0
 18 20  1  0  0  0  0
 13 21  1  0  0  0  0
 21 22  1  0  0  0  0
M  END
> <VConfSearch Rank>
596

> <Conf_Id>
95

> <Delta U+W>
-2.289

> <U+W>
4.134

> <U>
6.373

> <W>
-2.240

> <W(PB)>
-4.254

> <W(SA)>
2.015

> <Valence>
12.093

> <Coulomb>
-8.058

> <VdW>
2.339

> <VdW6>
-9.683

> <VdW12>
12.022

> <Bond>
0.268

> <Angle>
3.005

> <Pdih>
8.820

> <Idih>
0.000

> <Tether>
0.000

$$$$
VeraChem MOL file


 22 22  0  0  0  0  0  0  0  0999 V2000     
   18.8886   18.1789   23.1700 C   0  0  0  0  0  0  0  0  0  0  0  0
   18.2067   17.6220   22.5129 H   0  0  0  0  0  0  0  0  0  0  0  0
   18.8040   17.7050   24.1574 H   0  0  0  0  0  0  0  0  0  0  0  0
   18.3816   19.6374   23.2692 C   0  0  0  0  0  0  0  0  0  0  0  0
   17.9656   19.9469   22.3009 H   0  0  0  0  0  0  0  0  0  0  0  0
   17.5364   19.6559   23.9708 H   0  0  0  0  0  0  0  0  0  0  0  0
   19.4383   20.6687   23.7289 C   0  0  0  0  0  0  0  0  0  0  0  0
   20.0988   20.2402   24.4950 H   0  0  0  0  0  0  0  0  0  0  0  0
   18.9119   21.5029   24.2121 H   0  0  0  0  0  0  0  0  0  0  0  0
   20.2599   21.2484   22.5498 C   0  0  0  0  0  0  0  0  0  0  0  0
   19.5713   21.5892   21.7658 H   0  0  0  0  0  0  0  0  0  0  0  0
   20.7787   22.1523   22.8944 H   0  0  0  0  0  0  0  0  0  0  0  0
   21.3028   20.3006   21.9142 C   0  0  0  0  0  0  0  0  0  0  0  0
   21.6640   20.7932   20.9999 H   0  0  0  0  0  0  0  0  0  0  0  0
   20.7604   18.9105   21.4973 C   0  0  0  0  0  0  0  0  0  0  0  0
   19.9267   19.0294   20.7936 H   0  0  0  0  0  0  0  0  0  0  0  0
   21.5575   18.4067   20.9354 H   0  0  0  0  0  0  0  0  0  0  0  0
   20.3406   17.9873   22.6706 C   0  0  0  0  0  0  0  0  0  0  0  0
   20.4532   16.9416   22.3542 H   0  0  0  0  0  0  0  0  0  0  0  0
   21.0361   18.1121   23.5110 H   0  0  0  0  0  0  0  0  0  0  0  0
   22.4063   20.1492   22.8021 O   0  0  0  0  0  0  0  0  0  0  0  0
   22.6972   21.0515   23.0458 H   0  0  0  0  0  0  0  0  0  0  0  0
  1  2  1  0  0  0  0
  1  3  1  0  0  0  0
  1  4  1  0  0  0  0
  4  5  1  0  0  0  0
  4  6  1  0  0  0  0
  4  7  1  0  0  0  0
  7  8  1  0  0  0  0
  7  9  1  0  0  0  0
  7 10  1  0  0  0  0
 10 11  1  0  0  0  0
 10 12  1  0  0  0  0
 10 13  1  0  0  0  0
 13 14  1  0  0  0  0
 13 15  1  0  0  0  0
 15 16  1  0  0  0  0
 15 17  1  0  0  0  0
  1 18  1  0  0  0  0
 15 18  1  0  0  0  0
 18 19  1  0  0  0  0
 18 20  1  0  0  0  0
 13 21  1  0  0  0  0
 21 22  1  0  0  0  0
M  END
> <VConfSearch Rank>
597

> <Conf_Id>
41

> <Delta U+W>
-2.114

> <U+W>
4.310

> <U>
6.598

> <W>
-2.289

> <W(PB)>
-4.294

> <W(SA)>
2.005

> <Valence>
12.082

> <Coulomb>
-7.801

> <VdW>
2.317

> <VdW6>
-9.658

> <VdW12>
11.975

> <Bond>
0.267

> <Angle>
3.051

> <Pdih>
8.764

> <Idih>
0.000

> <Tether>
0.000

$$$$
VeraChem MOL file


 22 22  0  0  0  0  0  0  0  0999 V2000     
   19.0189   19.1056   21.5103 C   0  0  0  0  0  0  0  0  0  0  0  0
   18.5351   18.7651   20.5848 H   0  0  0  0  0  0  0  0  0  0  0  0
   18.2528   19.0522   22.2960 H   0  0  0  0  0  0  0  0  0  0  0  0
   19.4799   20.5646   21.2949 C   0  0  0  0  0  0  0  0  0  0  0  0
   20.2882   20.5887   20.5515 H   0  0  0  0  0  0  0  0  0  0  0  0
   18.6494   21.1336   20.8553 H   0  0  0  0  0  0  0  0  0  0  0  0
   19.9382   21.2915   22.5781 C   0  0  0  0  0  0  0  0  0  0  0  0
   19.0730   21.4547   23.2344 H   0  0  0  0  0  0  0  0  0  0  0  0
   20.2846   22.2941   22.2936 H   0  0  0  0  0  0  0  0  0  0  0  0
   21.0762   20.5867   23.3651 C   0  0  0  0  0  0  0  0  0  0  0  0
   21.9110   20.3532   22.6921 H   0  0  0  0  0  0  0  0  0  0  0  0
   21.4737   21.3075   24.0911 H   0  0  0  0  0  0  0  0  0  0  0  0
   20.6687   19.3180   24.1577 C   0  0  0  0  0  0  0  0  0  0  0  0
   21.4681   19.1334   24.8900 H   0  0  0  0  0  0  0  0  0  0  0  0
   20.5355   18.0149   23.3274 C   0  0  0  0  0  0  0  0  0  0  0  0
   21.4844   17.4679   23.4011 H   0  0  0  0  0  0  0  0  0  0  0  0
   19.7898   17.3633   23.8015 H   0  0  0  0  0  0  0  0  0  0  0  0
   20.1910   18.1495   21.8234 C   0  0  0  0  0  0  0  0  0  0  0  0
   21.0832   18.4590   21.2625 H   0  0  0  0  0  0  0  0  0  0  0  0
   19.9385   17.1492   21.4460 H   0  0  0  0  0  0  0  0  0  0  0  0
   19.4644   19.5493   24.8837 O   0  0  0  0  0  0  0  0  0  0  0  0
   19.2797   18.7338   25.3923 H   0  0  0  0  0  0  0  0  0  0  0  0
  1  2  1  0  0  0  0
  1  3  1  0  0  0  0
  1  4  1  0  0  0  0
  4  5  1  0  0  0  0
  4  6  1  0  0  0  0
  4  7  1  0  0  0  0
  7  8  1  0  0  0  0
  7  9  1  0  0  0  0
  7 10  1  0  0  0  0
 10 11  1  0  0  0  0
 10 12  1  0  0  0  0
 10 13  1  0  0  0  0
 13 14  1  0  0  0  0
 13 15  1  0  0  0  0
 15 16  1  0  0  0  0
 15 17  1  0  0  0  0
  1 18  1  0  0  0  0
 15 18  1  0  0  0  0
 18 19  1  0  0  0  0
 18 20  1  0  0  0  0
 13 21  1  0  0  0  0
 21 22  1  0  0  0  0
M  END
> <VConfSearch Rank>
598

> <Conf_Id>
104

> <Delta U+W>
-1.172

> <U+W>
5.252

> <U>
7.482

> <W>
-2.230

> <W(PB)>
-4.220

> <W(SA)>
1.990

> <Valence>
12.309

> <Coulomb>
-7.084

> <VdW>
2.258

> <VdW6>
-9.770

> <VdW12>
12.028

> <Bond>
0.284

> <Angle>
3.491

> <Pdih>
8.535

> <Idih>
0.000

> <Tether>
0.000

$$$$
VeraChem MOL file


 22 22  0  0  0  0  0  0  0  0999 V2000     
   21.1428   18.8481   21.6715 C   0  0  0  0  0  0  0  0  0  0  0  0
   21.2275   17.9623   22.3154 H   0  0  0  0  0  0  0  0  0  0  0  0
   21.8281   18.6768   20.8302 H   0  0  0  0  0  0  0  0  0  0  0  0
   21.6153   20.1183   22.4150 C   0  0  0  0  0  0  0  0  0  0  0  0
   22.7136   20.1450   22.3998 H   0  0  0  0  0  0  0  0  0  0  0  0
   21.3020   21.0071   21.8517 H   0  0  0  0  0  0  0  0  0  0  0  0
   21.1608   20.2404   23.8915 C   0  0  0  0  0  0  0  0  0  0  0  0
   21.1460   21.3047   24.1640 H   0  0  0  0  0  0  0  0  0  0  0  0
   21.9308   19.7870   24.5306 H   0  0  0  0  0  0  0  0  0  0  0  0
   19.7993   19.5980   24.2724 C   0  0  0  0  0  0  0  0  0  0  0  0
   19.9340   18.5150   24.3903 H   0  0  0  0  0  0  0  0  0  0  0  0
   19.5194   19.9633   25.2690 H   0  0  0  0  0  0  0  0  0  0  0  0
   18.6101   19.8492   23.3170 C   0  0  0  0  0  0  0  0  0  0  0  0
   17.6879   19.6905   23.8942 H   0  0  0  0  0  0  0  0  0  0  0  0
   18.5720   18.8575   22.1324 C   0  0  0  0  0  0  0  0  0  0  0  0
   18.5600   17.8346   22.5305 H   0  0  0  0  0  0  0  0  0  0  0  0
   17.6137   18.9832   21.6117 H   0  0  0  0  0  0  0  0  0  0  0  0
   19.7137   18.9780   21.0928 C   0  0  0  0  0  0  0  0  0  0  0  0
   19.5717   18.1868   20.3441 H   0  0  0  0  0  0  0  0  0  0  0  0
   19.6188   19.9244   20.5434 H   0  0  0  0  0  0  0  0  0  0  0  0
   18.6298   21.1846   22.8368 O   0  0  0  0  0  0  0  0  0  0  0  0
   19.5064   21.2726   22.4124 H   0  0  0  0  0  0  0  0  0  0  0  0
  1  2  1  0  0  0  0
  1  3  1  0  0  0  0
  1  4  1  0  0  0  0
  4  5  1  0  0  0  0
  4  6  1  0  0  0  0
  4  7  1  0  0  0  0
  7  8  1  0  0  0  0
  7  9  1  0  0  0  0
  7 10  1  0  0  0  0
 10 11  1  0  0  0  0
 10 12  1  0  0  0  0
 10 13  1  0  0  0  0
 13 14  1  0  0  0  0
 13 15  1  0  0  0  0
 15 16  1  0  0  0  0
 15 17  1  0  0  0  0
  1 18  1  0  0  0  0
 15 18  1  0  0  0  0
 18 19  1  0  0  0  0
 18 20  1  0  0  0  0
 13 21  1  0  0  0  0
 21 22  1  0  0  0  0
M  END
> <VConfSearch Rank>
599

> <Conf_Id>
99

> <Delta U+W>
-3.852

> <U+W>
2.572

> <U>
3.922

> <W>
-1.350

> <W(PB)>
-3.345

> <W(SA)>
1.995

> <Valence>
12.571

> <Coulomb>
-10.581

> <VdW>
1.932

> <VdW6>
-10.483

> <VdW12>
12.415

> <Bond>
0.268

> <Angle>
3.728

> <Pdih>
8.575

> <Idih>
0.000

> <Tether>
0.000

$$$$
VeraChem MOL file


 22 22  0  0  0  0  0  0  0  0999 V2000     
   20.8276   20.9666   23.2472 C   0  0  0  0  0  0  0  0  0  0  0  0
   21.6901   21.6447   23.3065 H   0  0  0  0  0  0  0  0  0  0  0  0
   20.0555   21.4353   23.8718 H   0  0  0  0  0  0  0  0  0  0  0  0
   21.2530   19.5985   23.8566 C   0  0  0  0  0  0  0  0  0  0  0  0
   22.2996   19.6846   24.1799 H   0  0  0  0  0  0  0  0  0  0  0  0
   20.6876   19.4023   24.7774 H   0  0  0  0  0  0  0  0  0  0  0  0
   21.1495   18.3732   22.9129 C   0  0  0  0  0  0  0  0  0  0  0  0
   21.6548   17.5235   23.3918 H   0  0  0  0  0  0  0  0  0  0  0  0
   21.7284   18.5592   21.9997 H   0  0  0  0  0  0  0  0  0  0  0  0
   19.7106   17.9210   22.5388 C   0  0  0  0  0  0  0  0  0  0  0  0
   19.7637   17.3452   21.6059 H   0  0  0  0  0  0  0  0  0  0  0  0
   19.3619   17.2097   23.2993 H   0  0  0  0  0  0  0  0  0  0  0  0
   18.6191   19.0084   22.3820 C   0  0  0  0  0  0  0  0  0  0  0  0
   17.7545   18.5263   21.9036 H   0  0  0  0  0  0  0  0  0  0  0  0
   18.9916   20.2323   21.5095 C   0  0  0  0  0  0  0  0  0  0  0  0
   18.9595   19.9297   20.4549 H   0  0  0  0  0  0  0  0  0  0  0  0
   18.1907   20.9751   21.6226 H   0  0  0  0  0  0  0  0  0  0  0  0
   20.3528   20.9345   21.7719 C   0  0  0  0  0  0  0  0  0  0  0  0
   21.1298   20.4830   21.1426 H   0  0  0  0  0  0  0  0  0  0  0  0
   20.2722   21.9690   21.4114 H   0  0  0  0  0  0  0  0  0  0  0  0
   18.1975   19.4479   23.6635 O   0  0  0  0  0  0  0  0  0  0  0  0
   18.9956   19.8660   24.0445 H   0  0  0  0  0  0  0  0  0  0  0  0
  1  2  1  0  0  0  0
  1  3  1  0  0  0  0
  1  4  1  0  0  0  0
  4  5  1  0  0  0  0
  4  6  1  0  0  0  0
  4  7  1  0  0  0  0
  7  8  1  0  0  0  0
  7  9  1  0  0  0  0
  7 10  1  0  0  0  0
 10 11  1  0  0  0  0
 10 12  1  0  0  0  0
 10 13  1  0  0  0  0
 13 14  1  0  0  0  0
 13 15  1  0  0  0  0
 15 16  1  0  0  0  0
 15 17  1  0  0  0  0
  1 18  1  0  0  0  0
 15 18  1  0  0  0  0
 18 19  1  0  0  0  0
 18 20  1  0  0  0  0
 13 21  1  0  0  0  0
 21 22  1  0  0  0  0
M  END
> <VConfSearch Rank>
600

> <Conf_Id>
98

> <Delta U+W>
0.930

> <U+W>
7.353

> <U>
8.455

> <W>
-1.102

> <W(PB)>
-3.101

> <W(SA)>
2.000

> <Valence>
15.601

> <Coulomb>
-10.573

> <VdW>
3.427

> <VdW6>
-11.360

> <VdW12>
14.787

> <Bond>
0.471

> <Angle>
5.445

> <Pdih>
9.685

> <Idih>
0.000

> <Tether>
0.000

$$$$
VeraChem MOL file


 22 22  0  0  0  0  0  0  0  0999 V2000     
   18.3433   19.7400   22.9942 C   0  0  0  0  0  0  0  0  0  0  0  0
   18.1954   19.8820   21.9159 H   0  0  0  0  0  0  0  0  0  0  0  0
   17.3352   19.7827   23.4284 H   0  0  0  0  0  0  0  0  0  0  0  0
   19.1774   20.9138   23.5677 C   0  0  0  0  0  0  0  0  0  0  0  0
   18.6265   21.8419   23.3629 H   0  0  0  0  0  0  0  0  0  0  0  0
   19.2245   20.8312   24.6620 H   0  0  0  0  0  0  0  0  0  0  0  0
   20.6172   21.0721   23.0052 C   0  0  0  0  0  0  0  0  0  0  0  0
   21.3489   20.6984   23.7332 H   0  0  0  0  0  0  0  0  0  0  0  0
   20.8329   22.1453   22.9131 H   0  0  0  0  0  0  0  0  0  0  0  0
   20.8637   20.3959   21.6305 C   0  0  0  0  0  0  0  0  0  0  0  0
   20.0911   20.7244   20.9242 H   0  0  0  0  0  0  0  0  0  0  0  0
   21.8050   20.7844   21.2189 H   0  0  0  0  0  0  0  0  0  0  0  0
   20.9210   18.8401   21.6383 C   0  0  0  0  0  0  0  0  0  0  0  0
   20.3074   18.4742   20.8025 H   0  0  0  0  0  0  0  0  0  0  0  0
   20.4299   18.1511   22.9361 C   0  0  0  0  0  0  0  0  0  0  0  0
   20.6329   17.0746   22.8657 H   0  0  0  0  0  0  0  0  0  0  0  0
   21.0273   18.4988   23.7874 H   0  0  0  0  0  0  0  0  0  0  0  0
   18.9244   18.3303   23.2544 C   0  0  0  0  0  0  0  0  0  0  0  0
   18.3473   17.6081   22.6610 H   0  0  0  0  0  0  0  0  0  0  0  0
   18.7561   18.0595   24.3056 H   0  0  0  0  0  0  0  0  0  0  0  0
   22.2695   18.4378   21.4261 O   0  0  0  0  0  0  0  0  0  0  0  0
   22.2682   17.4591   21.3781 H   0  0  0  0  0  0  0  0  0  0  0  0
  1  2  1  0  0  0  0
  1  3  1  0  0  0  0
  1  4  1  0  0  0  0
  4  5  1  0  0  0  0
  4  6  1  0  0  0  0
  4  7  1  0  0  0  0
  7  8  1  0  0  0  0
  7  9  1  0  0  0  0
  7 10  1  0  0  0  0
 10 11  1  0  0  0  0
 10 12  1  0  0  0  0
 10 13  1  0  0  0  0
 13 14  1  0  0  0  0
 13 15  1  0  0  0  0
 15 16  1  0  0  0  0
 15 17  1  0  0  0  0
  1 18  1  0  0  0  0
 15 18  1  0  0  0  0
 18 19  1  0  0  0  0
 18 20  1  0  0  0  0
 13 21  1  0  0  0  0
 21 22  1  0  0  0  0
M  END
> <VConfSearch Rank>
601

> <Conf_Id>
141

> <Delta U+W>
0.000

> <U+W>
6.423

> <U>
8.781

> <W>
-2.358

> <W(PB)>
-4.373

> <W(SA)>
2.015

> <Valence>
13.328

> <Coulomb>
-8.387

> <VdW>
3.840

> <VdW6>
-9.744

> <VdW12>
13.584

> <Bond>
0.436

> <Angle>
3.478

> <Pdih>
9.415

> <Idih>
0.000

> <Tether>
0.000

$$$$
VeraChem MOL file


 22 22  0  0  0  0  0  0  0  0999 V2000     
   19.7421   18.2990   23.7899 C   0  0  0  0  0  0  0  0  0  0  0  0
   19.2058   17.7509   23.0034 H   0  0  0  0  0  0  0  0  0  0  0  0
   19.7801   17.6257   24.6572 H   0  0  0  0  0  0  0  0  0  0  0  0
   18.9605   19.5661   24.2130 C   0  0  0  0  0  0  0  0  0  0  0  0
   18.0436   19.2547   24.7318 H   0  0  0  0  0  0  0  0  0  0  0  0
   19.5475   20.1255   24.9543 H   0  0  0  0  0  0  0  0  0  0  0  0
   18.5625   20.5121   23.0566 C   0  0  0  0  0  0  0  0  0  0  0  0
   18.0784   21.3979   23.4901 H   0  0  0  0  0  0  0  0  0  0  0  0
   17.7977   20.0268   22.4350 H   0  0  0  0  0  0  0  0  0  0  0  0
   19.7355   20.9789   22.1603 C   0  0  0  0  0  0  0  0  0  0  0  0
   19.3700   21.8080   21.5403 H   0  0  0  0  0  0  0  0  0  0  0  0
   20.5497   21.3902   22.7711 H   0  0  0  0  0  0  0  0  0  0  0  0
   20.2642   19.8577   21.2378 C   0  0  0  0  0  0  0  0  0  0  0  0
   19.4194   19.2084   20.9664 H   0  0  0  0  0  0  0  0  0  0  0  0
   21.3698   18.9782   21.8650 C   0  0  0  0  0  0  0  0  0  0  0  0
   21.4324   18.0544   21.2754 H   0  0  0  0  0  0  0  0  0  0  0  0
   22.3413   19.4767   21.7470 H   0  0  0  0  0  0  0  0  0  0  0  0
   21.1955   18.6045   23.3583 C   0  0  0  0  0  0  0  0  0  0  0  0
   21.8209   17.7249   23.5632 H   0  0  0  0  0  0  0  0  0  0  0  0
   21.6023   19.4075   23.9879 H   0  0  0  0  0  0  0  0  0  0  0  0
   20.7883   20.4471   20.0541 O   0  0  0  0  0  0  0  0  0  0  0  0
   20.0515   20.9373   19.6327 H   0  0  0  0  0  0  0  0  0  0  0  0
  1  2  1  0  0  0  0
  1  3  1  0  0  0  0
  1  4  1  0  0  0  0
  4  5  1  0  0  0  0
  4  6  1  0  0  0  0
  4  7  1  0  0  0  0
  7  8  1  0  0  0  0
  7  9  1  0  0  0  0
  7 10  1  0  0  0  0
 10 11  1  0  0  0  0
 10 12  1  0  0  0  0
 10 13  1  0  0  0  0
 13 14  1  0  0  0  0
 13 15  1  0  0  0  0
 15 16  1  0  0  0  0
 15 17  1  0  0  0  0
  1 18  1  0  0  0  0
 15 18  1  0  0  0  0
 18 19  1  0  0  0  0
 18 20  1  0  0  0  0
 13 21  1  0  0  0  0
 21 22  1  0  0  0  0
M  END
> <VConfSearch Rank>
602

> <Conf_Id>
144

> <Delta U+W>
-3.291

> <U+W>
3.132

> <U>
5.411

> <W>
-2.279

> <W(PB)>
-4.300

> <W(SA)>
2.021

> <Valence>
11.909

> <Coulomb>
-8.733

> <VdW>
2.236

> <VdW6>
-8.936

> <VdW12>
11.172

> <Bond>
0.223

> <Angle>
2.457

> <Pdih>
9.228

> <Idih>
0.000

> <Tether>
0.000

$$$$
VeraChem MOL file


 22 22  0  0  0  0  0  0  0  0999 V2000     
   20.4234   18.5593   23.9882 C   0  0  0  0  0  0  0  0  0  0  0  0
   20.8953   18.1659   24.8989 H   0  0  0  0  0  0  0  0  0  0  0  0
   19.7472   17.7706   23.6313 H   0  0  0  0  0  0  0  0  0  0  0  0
   21.5388   18.8386   22.9539 C   0  0  0  0  0  0  0  0  0  0  0  0
   21.9930   19.8171   23.1612 H   0  0  0  0  0  0  0  0  0  0  0  0
   22.3453   18.1059   23.0943 H   0  0  0  0  0  0  0  0  0  0  0  0
   21.0914   18.7769   21.4733 C   0  0  0  0  0  0  0  0  0  0  0  0
   21.1055   17.7306   21.1390 H   0  0  0  0  0  0  0  0  0  0  0  0
   21.8466   19.2942   20.8658 H   0  0  0  0  0  0  0  0  0  0  0  0
   19.6960   19.3668   21.1525 C   0  0  0  0  0  0  0  0  0  0  0  0
   19.6535   19.5603   20.0721 H   0  0  0  0  0  0  0  0  0  0  0  0
   18.9293   18.6063   21.3490 H   0  0  0  0  0  0  0  0  0  0  0  0
   19.3425   20.6594   21.9219 C   0  0  0  0  0  0  0  0  0  0  0  0
   20.2516   21.2591   22.0715 H   0  0  0  0  0  0  0  0  0  0  0  0
   18.6795   20.3729   23.2884 C   0  0  0  0  0  0  0  0  0  0  0  0
   18.2294   21.3022   23.6626 H   0  0  0  0  0  0  0  0  0  0  0  0
   17.8497   19.6673   23.1523 H   0  0  0  0  0  0  0  0  0  0  0  0
   19.6324   19.8305   24.3800 C   0  0  0  0  0  0  0  0  0  0  0  0
   20.3357   20.6213   24.6750 H   0  0  0  0  0  0  0  0  0  0  0  0
   19.0370   19.6101   25.2765 H   0  0  0  0  0  0  0  0  0  0  0  0
   18.4223   21.4079   21.1389 O   0  0  0  0  0  0  0  0  0  0  0  0
   17.6306   20.8424   21.0266 H   0  0  0  0  0  0  0  0  0  0  0  0
  1  2  1  0  0  0  0
  1  3  1  0  0  0  0
  1  4  1  0  0  0  0
  4  5  1  0  0  0  0
  4  6  1  0  0  0  0
  4  7  1  0  0  0  0
  7  8  1  0  0  0  0
  7  9  1  0  0  0  0
  7 10  1  0  0  0  0
 10 11  1  0  0  0  0
 10 12  1  0  0  0  0
 10 13  1  0  0  0  0
 13 14  1  0  0  0  0
 13 15  1  0  0  0  0
 15 16  1  0  0  0  0
 15 17  1  0  0  0  0
  1 18  1  0  0  0  0
 15 18  1  0  0  0  0
 18 19  1  0  0  0  0
 18 20  1  0  0  0  0
 13 21  1  0  0  0  0
 21 22  1  0  0  0  0
M  END
> <VConfSearch Rank>
603

> <Conf_Id>
76

> <Delta U+W>
-3.175

> <U+W>
3.248

> <U>
5.336

> <W>
-2.088

> <W(PB)>
-4.098

> <W(SA)>
2.010

> <Valence>
12.390

> <Coulomb>
-9.270

> <VdW>
2.216

> <VdW6>
-8.967

> <VdW12>
11.183

> <Bond>
0.218

> <Angle>
2.426

> <Pdih>
9.745

> <Idih>
0.000

> <Tether>
0.000

$$$$
VeraChem MOL file


 22 22  0  0  0  0  0  0  0  0999 V2000     
   20.3749   17.7381   23.0238 C   0  0  0  0  0  0  0  0  0  0  0  0
   21.1006   17.0830   22.5230 H   0  0  0  0  0  0  0  0  0  0  0  0
   19.9226   17.1294   23.8186 H   0  0  0  0  0  0  0  0  0  0  0  0
   19.2795   18.1194   21.9994 C   0  0  0  0  0  0  0  0  0  0  0  0
   19.7335   18.2463   21.0073 H   0  0  0  0  0  0  0  0  0  0  0  0
   18.5944   17.2662   21.9018 H   0  0  0  0  0  0  0  0  0  0  0  0
   18.4612   19.3822   22.3560 C   0  0  0  0  0  0  0  0  0  0  0  0
   18.2806   19.4417   23.4380 H   0  0  0  0  0  0  0  0  0  0  0  0
   17.4724   19.2916   21.8866 H   0  0  0  0  0  0  0  0  0  0  0  0
   19.1137   20.6873   21.8336 C   0  0  0  0  0  0  0  0  0  0  0  0
   19.3480   20.5720   20.7677 H   0  0  0  0  0  0  0  0  0  0  0  0
   18.3721   21.4952   21.8866 H   0  0  0  0  0  0  0  0  0  0  0  0
   20.3856   21.1591   22.5745 C   0  0  0  0  0  0  0  0  0  0  0  0
   20.8165   21.9751   21.9766 H   0  0  0  0  0  0  0  0  0  0  0  0
   21.4888   20.0839   22.7402 C   0  0  0  0  0  0  0  0  0  0  0  0
   21.7785   19.6933   21.7562 H   0  0  0  0  0  0  0  0  0  0  0  0
   22.3825   20.5847   23.1345 H   0  0  0  0  0  0  0  0  0  0  0  0
   21.1299   18.9125   23.6910 C   0  0  0  0  0  0  0  0  0  0  0  0
   22.0563   18.5137   24.1261 H   0  0  0  0  0  0  0  0  0  0  0  0
   20.5453   19.2841   24.5428 H   0  0  0  0  0  0  0  0  0  0  0  0
   20.0204   21.6859   23.8461 O   0  0  0  0  0  0  0  0  0  0  0  0
   20.8548   21.9231   24.2998 H   0  0  0  0  0  0  0  0  0  0  0  0
  1  2  1  0  0  0  0
  1  3  1  0  0  0  0
  1  4  1  0  0  0  0
  4  5  1  0  0  0  0
  4  6  1  0  0  0  0
  4  7  1  0  0  0  0
  7  8  1  0  0  0  0
  7  9  1  0  0  0  0
  7 10  1  0  0  0  0
 10 11  1  0  0  0  0
 10 12  1  0  0  0  0
 10 13  1  0  0  0  0
 13 14  1  0  0  0  0
 13 15  1  0  0  0  0
 15 16  1  0  0  0  0
 15 17  1  0  0  0  0
  1 18  1  0  0  0  0
 15 18  1  0  0  0  0
 18 19  1  0  0  0  0
 18 20  1  0  0  0  0
 13 21  1  0  0  0  0
 21 22  1  0  0  0  0
M  END
> <VConfSearch Rank>
604

> <Conf_Id>
95

> <Delta U+W>
-2.289

> <U+W>
4.134

> <U>
6.373

> <W>
-2.240

> <W(PB)>
-4.254

> <W(SA)>
2.015

> <Valence>
12.093

> <Coulomb>
-8.058

> <VdW>
2.339

> <VdW6>
-9.683

> <VdW12>
12.022

> <Bond>
0.268

> <Angle>
3.005

> <Pdih>
8.820

> <Idih>
0.000

> <Tether>
0.000

$$$$
VeraChem MOL file


 22 22  0  0  0  0  0  0  0  0999 V2000     
   20.6932   21.3787   23.1195 C   0  0  0  0  0  0  0  0  0  0  0  0
   20.2774   22.3451   22.8036 H   0  0  0  0  0  0  0  0  0  0  0  0
   21.5494   21.6191   23.7645 H   0  0  0  0  0  0  0  0  0  0  0  0
   21.2063   20.6381   21.8614 C   0  0  0  0  0  0  0  0  0  0  0  0
   20.5377   20.8475   21.0155 H   0  0  0  0  0  0  0  0  0  0  0  0
   22.1759   21.0732   21.5835 H   0  0  0  0  0  0  0  0  0  0  0  0
   21.3697   19.1088   22.0222 C   0  0  0  0  0  0  0  0  0  0  0  0
   21.7409   18.8562   23.0248 H   0  0  0  0  0  0  0  0  0  0  0  0
   22.1424   18.7732   21.3175 H   0  0  0  0  0  0  0  0  0  0  0  0
   20.0680   18.3317   21.7009 C   0  0  0  0  0  0  0  0  0  0  0  0
   19.6780   18.6698   20.7321 H   0  0  0  0  0  0  0  0  0  0  0  0
   20.3175   17.2720   21.5603 H   0  0  0  0  0  0  0  0  0  0  0  0
   18.9377   18.4309   22.7508 C   0  0  0  0  0  0  0  0  0  0  0  0
   18.0428   17.9807   22.2975 H   0  0  0  0  0  0  0  0  0  0  0  0
   18.5568   19.8720   23.1732 C   0  0  0  0  0  0  0  0  0  0  0  0
   18.2622   20.4553   22.2915 H   0  0  0  0  0  0  0  0  0  0  0  0
   17.6578   19.7996   23.7989 H   0  0  0  0  0  0  0  0  0  0  0  0
   19.6433   20.6326   23.9771 C   0  0  0  0  0  0  0  0  0  0  0  0
   19.1509   21.3705   24.6247 H   0  0  0  0  0  0  0  0  0  0  0  0
   20.1536   19.9417   24.6612 H   0  0  0  0  0  0  0  0  0  0  0  0
   19.2891   17.6617   23.8970 O   0  0  0  0  0  0  0  0  0  0  0  0
   19.5358   16.7713   23.5736 H   0  0  0  0  0  0  0  0  0  0  0  0
  1  2  1  0  0  0  0
  1  3  1  0  0  0  0
  1  4  1  0  0  0  0
  4  5  1  0  0  0  0
  4  6  1  0  0  0  0
  4  7  1  0  0  0  0
  7  8  1  0  0  0  0
  7  9  1  0  0  0  0
  7 10  1  0  0  0  0
 10 11  1  0  0  0  0
 10 12  1  0  0  0  0
 10 13  1  0  0  0  0
 13 14  1  0  0  0  0
 13 15  1  0  0  0  0
 15 16  1  0  0  0  0
 15 17  1  0  0  0  0
  1 18  1  0  0  0  0
 15 18  1  0  0  0  0
 18 19  1  0  0  0  0
 18 20  1  0  0  0  0
 13 21  1  0  0  0  0
 21 22  1  0  0  0  0
M  END
> <VConfSearch Rank>
605

> <Conf_Id>
41

> <Delta U+W>
-2.114

> <U+W>
4.310

> <U>
6.598

> <W>
-2.289

> <W(PB)>
-4.294

> <W(SA)>
2.005

> <Valence>
12.082

> <Coulomb>
-7.801

> <VdW>
2.317

> <VdW6>
-9.658

> <VdW12>
11.975

> <Bond>
0.267

> <Angle>
3.051

> <Pdih>
8.764

> <Idih>
0.000

> <Tether>
0.000

$$$$
VeraChem MOL file


 22 22  0  0  0  0  0  0  0  0999 V2000     
   19.9948   21.1992   22.6224 C   0  0  0  0  0  0  0  0  0  0  0  0
   19.6786   22.2477   22.5382 H   0  0  0  0  0  0  0  0  0  0  0  0
   20.9976   21.2151   23.0711 H   0  0  0  0  0  0  0  0  0  0  0  0
   20.0429   20.6028   21.1978 C   0  0  0  0  0  0  0  0  0  0  0  0
   19.0243   20.5383   20.7918 H   0  0  0  0  0  0  0  0  0  0  0  0
   20.5841   21.2999   20.5438 H   0  0  0  0  0  0  0  0  0  0  0  0
   20.7248   19.2205   21.1008 C   0  0  0  0  0  0  0  0  0  0  0  0
   21.7986   19.3276   21.3042 H   0  0  0  0  0  0  0  0  0  0  0  0
   20.6554   18.8815   20.0585 H   0  0  0  0  0  0  0  0  0  0  0  0
   20.1186   18.1202   22.0135 C   0  0  0  0  0  0  0  0  0  0  0  0
   19.0324   18.0655   21.8670 H   0  0  0  0  0  0  0  0  0  0  0  0
   20.5123   17.1534   21.6744 H   0  0  0  0  0  0  0  0  0  0  0  0
   20.4402   18.2392   23.5256 C   0  0  0  0  0  0  0  0  0  0  0  0
   20.2293   17.2562   23.9711 H   0  0  0  0  0  0  0  0  0  0  0  0
   19.5892   19.2639   24.3199 C   0  0  0  0  0  0  0  0  0  0  0  0
   18.7529   18.7235   24.7822 H   0  0  0  0  0  0  0  0  0  0  0  0
   20.1834   19.6478   25.1596 H   0  0  0  0  0  0  0  0  0  0  0  0
   18.9953   20.4651   23.5433 C   0  0  0  0  0  0  0  0  0  0  0  0
   18.1237   20.1382   22.9603 H   0  0  0  0  0  0  0  0  0  0  0  0
   18.6051   21.1810   24.2795 H   0  0  0  0  0  0  0  0  0  0  0  0
   21.8252   18.5124   23.7205 O   0  0  0  0  0  0  0  0  0  0  0  0
   21.9753   18.5365   24.6873 H   0  0  0  0  0  0  0  0  0  0  0  0
  1  2  1  0  0  0  0
  1  3  1  0  0  0  0
  1  4  1  0  0  0  0
  4  5  1  0  0  0  0
  4  6  1  0  0  0  0
  4  7  1  0  0  0  0
  7  8  1  0  0  0  0
  7  9  1  0  0  0  0
  7 10  1  0  0  0  0
 10 11  1  0  0  0  0
 10 12  1  0  0  0  0
 10 13  1  0  0  0  0
 13 14  1  0  0  0  0
 13 15  1  0  0  0  0
 15 16  1  0  0  0  0
 15 17  1  0  0  0  0
  1 18  1  0  0  0  0
 15 18  1  0  0  0  0
 18 19  1  0  0  0  0
 18 20  1  0  0  0  0
 13 21  1  0  0  0  0
 21 22  1  0  0  0  0
M  END
> <VConfSearch Rank>
606

> <Conf_Id>
104

> <Delta U+W>
-1.172

> <U+W>
5.252

> <U>
7.482

> <W>
-2.230

> <W(PB)>
-4.220

> <W(SA)>
1.990

> <Valence>
12.309

> <Coulomb>
-7.084

> <VdW>
2.258

> <VdW6>
-9.770

> <VdW12>
12.028

> <Bond>
0.284

> <Angle>
3.491

> <Pdih>
8.535

> <Idih>
0.000

> <Tether>
0.000

$$$$
VeraChem MOL file


 22 22  0  0  0  0  0  0  0  0999 V2000     
   20.8705   20.2662   21.4062 C   0  0  0  0  0  0  0  0  0  0  0  0
   21.4666   20.9209   22.0563 H   0  0  0  0  0  0  0  0  0  0  0  0
   21.1739   20.5045   20.3775 H   0  0  0  0  0  0  0  0  0  0  0  0
   19.3629   20.5804   21.5392 C   0  0  0  0  0  0  0  0  0  0  0  0
   19.1368   21.4729   20.9395 H   0  0  0  0  0  0  0  0  0  0  0  0
   18.7809   19.7726   21.0765 H   0  0  0  0  0  0  0  0  0  0  0  0
   18.8555   20.8395   22.9804 C   0  0  0  0  0  0  0  0  0  0  0  0
   17.7832   20.6030   23.0194 H   0  0  0  0  0  0  0  0  0  0  0  0
   18.9235   21.9169   23.1842 H   0  0  0  0  0  0  0  0  0  0  0  0
   19.5830   20.0984   24.1349 C   0  0  0  0  0  0  0  0  0  0  0  0
   20.5232   20.6186   24.3590 H   0  0  0  0  0  0  0  0  0  0  0  0
   18.9733   20.2027   25.0417 H   0  0  0  0  0  0  0  0  0  0  0  0
   19.8839   18.5961   23.9284 C   0  0  0  0  0  0  0  0  0  0  0  0
   20.0168   18.1494   24.9242 H   0  0  0  0  0  0  0  0  0  0  0  0
   21.1951   18.3482   23.1489 C   0  0  0  0  0  0  0  0  0  0  0  0
   22.0162   18.8555   23.6718 H   0  0  0  0  0  0  0  0  0  0  0  0
   21.4278   17.2767   23.2029 H   0  0  0  0  0  0  0  0  0  0  0  0
   21.2066   18.7775   21.6609 C   0  0  0  0  0  0  0  0  0  0  0  0
   22.2099   18.5772   21.2608 H   0  0  0  0  0  0  0  0  0  0  0  0
   20.5257   18.1377   21.0834 H   0  0  0  0  0  0  0  0  0  0  0  0
   18.7984   17.9552   23.2764 O   0  0  0  0  0  0  0  0  0  0  0  0
   18.6900   18.4572   22.4442 H   0  0  0  0  0  0  0  0  0  0  0  0
  1  2  1  0  0  0  0
  1  3  1  0  0  0  0
  1  4  1  0  0  0  0
  4  5  1  0  0  0  0
  4  6  1  0  0  0  0
  4  7  1  0  0  0  0
  7  8  1  0  0  0  0
  7  9  1  0  0  0  0
  7 10  1  0  0  0  0
 10 11  1  0  0  0  0
 10 12  1  0  0  0  0
 10 13  1  0  0  0  0
 13 14  1  0  0  0  0
 13 15  1  0  0  0  0
 15 16  1  0  0  0  0
 15 17  1  0  0  0  0
  1 18  1  0  0  0  0
 15 18  1  0  0  0  0
 18 19  1  0  0  0  0
 18 20  1  0  0  0  0
 13 21  1  0  0  0  0
 21 22  1  0  0  0  0
M  END
> <VConfSearch Rank>
607

> <Conf_Id>
99

> <Delta U+W>
-3.852

> <U+W>
2.572

> <U>
3.922

> <W>
-1.350

> <W(PB)>
-3.345

> <W(SA)>
1.995

> <Valence>
12.571

> <Coulomb>
-10.581

> <VdW>
1.932

> <VdW6>
-10.483

> <VdW12>
12.415

> <Bond>
0.268

> <Angle>
3.728

> <Pdih>
8.575

> <Idih>
0.000

> <Tether>
0.000

$$$$
VeraChem MOL file


 22 22  0  0  0  0  0  0  0  0999 V2000     
   20.6679   21.0381   22.0953 C   0  0  0  0  0  0  0  0  0  0  0  0
   21.3969   21.6241   21.5188 H   0  0  0  0  0  0  0  0  0  0  0  0
   19.9496   21.7761   22.4767 H   0  0  0  0  0  0  0  0  0  0  0  0
   21.4245   20.3651   23.2779 C   0  0  0  0  0  0  0  0  0  0  0  0
   22.4810   20.6600   23.2134 H   0  0  0  0  0  0  0  0  0  0  0  0
   21.0739   20.7759   24.2342 H   0  0  0  0  0  0  0  0  0  0  0  0
   21.3685   18.8168   23.3265 C   0  0  0  0  0  0  0  0  0  0  0  0
   22.0899   18.4675   24.0778 H   0  0  0  0  0  0  0  0  0  0  0  0
   21.7353   18.4031   22.3790 H   0  0  0  0  0  0  0  0  0  0  0  0
   19.9862   18.1955   23.6700 C   0  0  0  0  0  0  0  0  0  0  0  0
   19.9717   17.1635   23.2965 H   0  0  0  0  0  0  0  0  0  0  0  0
   19.9062   18.1099   24.7619 H   0  0  0  0  0  0  0  0  0  0  0  0
   18.7131   18.9176   23.1643 C   0  0  0  0  0  0  0  0  0  0  0  0
   17.8738   18.2215   23.3051 H   0  0  0  0  0  0  0  0  0  0  0  0
   18.7078   19.3327   21.6723 C   0  0  0  0  0  0  0  0  0  0  0  0
   18.5419   18.4351   21.0627 H   0  0  0  0  0  0  0  0  0  0  0  0
   17.8235   19.9627   21.5074 H   0  0  0  0  0  0  0  0  0  0  0  0
   19.9518   20.0768   21.1125 C   0  0  0  0  0  0  0  0  0  0  0  0
   20.6710   19.3494   20.7159 H   0  0  0  0  0  0  0  0  0  0  0  0
   19.6311   20.6544   20.2349 H   0  0  0  0  0  0  0  0  0  0  0  0
   18.4559   20.0532   23.9752 O   0  0  0  0  0  0  0  0  0  0  0  0
   19.2245   20.6368   23.8154 H   0  0  0  0  0  0  0  0  0  0  0  0
  1  2  1  0  0  0  0
  1  3  1  0  0  0  0
  1  4  1  0  0  0  0
  4  5  1  0  0  0  0
  4  6  1  0  0  0  0
  4  7  1  0  0  0  0
  7  8  1  0  0  0  0
  7  9  1  0  0  0  0
  7 10  1  0  0  0  0
 10 11  1  0  0  0  0
 10 12  1  0  0  0  0
 10 13  1  0  0  0  0
 13 14  1  0  0  0  0
 13 15  1  0  0  0  0
 15 16  1  0  0  0  0
 15 17  1  0  0  0  0
  1 18  1  0  0  0  0
 15 18  1  0  0  0  0
 18 19  1  0  0  0  0
 18 20  1  0  0  0  0
 13 21  1  0  0  0  0
 21 22  1  0  0  0  0
M  END
> <VConfSearch Rank>
608

> <Conf_Id>
98

> <Delta U+W>
0.930

> <U+W>
7.353

> <U>
8.455

> <W>
-1.102

> <W(PB)>
-3.101

> <W(SA)>
2.000

> <Valence>
15.601

> <Coulomb>
-10.573

> <VdW>
3.427

> <VdW6>
-11.360

> <VdW12>
14.787

> <Bond>
0.471

> <Angle>
5.445

> <Pdih>
9.685

> <Idih>
0.000

> <Tether>
0.000

$$$$
VeraChem MOL file


 22 22  0  0  0  0  0  0  0  0999 V2000     
   20.3648   20.9518   21.7484 C   0  0  0  0  0  0  0  0  0  0  0  0
   19.7884   20.5060   20.9276 H   0  0  0  0  0  0  0  0  0  0  0  0
   20.6578   21.9458   21.3841 H   0  0  0  0  0  0  0  0  0  0  0  0
   21.6484   20.1202   21.9992 C   0  0  0  0  0  0  0  0  0  0  0  0
   22.2276   20.1164   21.0657 H   0  0  0  0  0  0  0  0  0  0  0  0
   22.2794   20.6318   22.7386 H   0  0  0  0  0  0  0  0  0  0  0  0
   21.4358   18.6460   22.4422 C   0  0  0  0  0  0  0  0  0  0  0  0
   21.6198   18.5466   23.5198 H   0  0  0  0  0  0  0  0  0  0  0  0
   22.2103   18.0300   21.9652 H   0  0  0  0  0  0  0  0  0  0  0  0
   20.0450   18.0505   22.0978 C   0  0  0  0  0  0  0  0  0  0  0  0
   19.8392   18.2097   21.0320 H   0  0  0  0  0  0  0  0  0  0  0  0
   20.0984   16.9596   22.2144 H   0  0  0  0  0  0  0  0  0  0  0  0
   18.8483   18.5888   22.9356 C   0  0  0  0  0  0  0  0  0  0  0  0
   18.0260   18.8190   22.2428 H   0  0  0  0  0  0  0  0  0  0  0  0
   19.1314   19.8525   23.7861 C   0  0  0  0  0  0  0  0  0  0  0  0
   18.2577   20.0588   24.4179 H   0  0  0  0  0  0  0  0  0  0  0  0
   19.9492   19.6494   24.4879 H   0  0  0  0  0  0  0  0  0  0  0  0
   19.4490   21.1374   22.9811 C   0  0  0  0  0  0  0  0  0  0  0  0
   18.5056   21.5862   22.6413 H   0  0  0  0  0  0  0  0  0  0  0  0
   19.9038   21.8706   23.6609 H   0  0  0  0  0  0  0  0  0  0  0  0
   18.4232   17.5626   23.8252 O   0  0  0  0  0  0  0  0  0  0  0  0
   17.6362   17.9060   24.2974 H   0  0  0  0  0  0  0  0  0  0  0  0
  1  2  1  0  0  0  0
  1  3  1  0  0  0  0
  1  4  1  0  0  0  0
  4  5  1  0  0  0  0
  4  6  1  0  0  0  0
  4  7  1  0  0  0  0
  7  8  1  0  0  0  0
  7  9  1  0  0  0  0
  7 10  1  0  0  0  0
 10 11  1  0  0  0  0
 10 12  1  0  0  0  0
 10 13  1  0  0  0  0
 13 14  1  0  0  0  0
 13 15  1  0  0  0  0
 15 16  1  0  0  0  0
 15 17  1  0  0  0  0
  1 18  1  0  0  0  0
 15 18  1  0  0  0  0
 18 19  1  0  0  0  0
 18 20  1  0  0  0  0
 13 21  1  0  0  0  0
 21 22  1  0  0  0  0
M  END
> <VConfSearch Rank>
609

> <Conf_Id>
141

> <Delta U+W>
0.000

> <U+W>
6.423

> <U>
8.781

> <W>
-2.358

> <W(PB)>
-4.373

> <W(SA)>
2.015

> <Valence>
13.328

> <Coulomb>
-8.387

> <VdW>
3.840

> <VdW6>
-9.744

> <VdW12>
13.584

> <Bond>
0.436

> <Angle>
3.478

> <Pdih>
9.415

> <Idih>
0.000

> <Tether>
0.000

$$$$
VeraChem MOL file


 22 22  0  0  0  0  0  0  0  0999 V2000     
   18.5260   20.1436   21.8541 C   0  0  0  0  0  0  0  0  0  0  0  0
   18.0178   20.1463   22.8280 H   0  0  0  0  0  0  0  0  0  0  0  0
   17.7913   20.5163   21.1273 H   0  0  0  0  0  0  0  0  0  0  0  0
   18.9125   18.7045   21.4354 C   0  0  0  0  0  0  0  0  0  0  0  0
   17.9927   18.1444   21.2183 H   0  0  0  0  0  0  0  0  0  0  0  0
   19.4716   18.7380   20.4904 H   0  0  0  0  0  0  0  0  0  0  0  0
   19.7255   17.9091   22.4826 C   0  0  0  0  0  0  0  0  0  0  0  0
   19.9932   16.9385   22.0431 H   0  0  0  0  0  0  0  0  0  0  0  0
   19.0848   17.6807   23.3453 H   0  0  0  0  0  0  0  0  0  0  0  0
   21.0199   18.6041   22.9712 C   0  0  0  0  0  0  0  0  0  0  0  0
   21.6115   17.8577   23.5175 H   0  0  0  0  0  0  0  0  0  0  0  0
   21.6362   18.9181   22.1189 H   0  0  0  0  0  0  0  0  0  0  0  0
   20.7375   19.8020   23.9055 C   0  0  0  0  0  0  0  0  0  0  0  0
   19.8264   19.5827   24.4805 H   0  0  0  0  0  0  0  0  0  0  0  0
   20.5385   21.1510   23.1774 C   0  0  0  0  0  0  0  0  0  0  0  0
   20.0395   21.8343   23.8767 H   0  0  0  0  0  0  0  0  0  0  0  0
   21.5191   21.5988   22.9676 H   0  0  0  0  0  0  0  0  0  0  0  0
   19.7304   21.1138   21.8562 C   0  0  0  0  0  0  0  0  0  0  0  0
   19.3697   22.1308   21.6502 H   0  0  0  0  0  0  0  0  0  0  0  0
   20.4009   20.8653   21.0223 H   0  0  0  0  0  0  0  0  0  0  0  0
   21.8266   19.9453   24.8091 O   0  0  0  0  0  0  0  0  0  0  0  0
   21.8873   19.1070   25.3132 H   0  0  0  0  0  0  0  0  0  0  0  0
  1  2  1  0  0  0  0
  1  3  1  0  0  0  0
  1  4  1  0  0  0  0
  4  5  1  0  0  0  0
  4  6  1  0  0  0  0
  4  7  1  0  0  0  0
  7  8  1  0  0  0  0
  7  9  1  0  0  0  0
  7 10  1  0  0  0  0
 10 11  1  0  0  0  0
 10 12  1  0  0  0  0
 10 13  1  0  0  0  0
 13 14  1  0  0  0  0
 13 15  1  0  0  0  0
 15 16  1  0  0  0  0
 15 17  1  0  0  0  0
  1 18  1  0  0  0  0
 15 18  1  0  0  0  0
 18 19  1  0  0  0  0
 18 20  1  0  0  0  0
 13 21  1  0  0  0  0
 21 22  1  0  0  0  0
M  END
> <VConfSearch Rank>
610

> <Conf_Id>
144

> <Delta U+W>
-3.291

> <U+W>
3.132

> <U>
5.411

> <W>
-2.279

> <W(PB)>
-4.300

> <W(SA)>
2.021

> <Valence>
11.909

> <Coulomb>
-8.733

> <VdW>
2.236

> <VdW6>
-8.936

> <VdW12>
11.172

> <Bond>
0.223

> <Angle>
2.457

> <Pdih>
9.228

> <Idih>
0.000

> <Tether>
0.000

$$$$
VeraChem MOL file


 22 22  0  0  0  0  0  0  0  0999 V2000     
   20.2630   17.9862   23.3195 C   0  0  0  0  0  0  0  0  0  0  0  0
   20.7281   17.1178   23.8057 H   0  0  0  0  0  0  0  0  0  0  0  0
   19.2516   17.6680   23.0321 H   0  0  0  0  0  0  0  0  0  0  0  0
   21.1039   18.3431   22.0715 C   0  0  0  0  0  0  0  0  0  0  0  0
   21.9660   18.9531   22.3738 H   0  0  0  0  0  0  0  0  0  0  0  0
   21.5301   17.4204   21.6544 H   0  0  0  0  0  0  0  0  0  0  0  0
   20.3287   19.0632   20.9417 C   0  0  0  0  0  0  0  0  0  0  0  0
   19.8154   18.3123   20.3256 H   0  0  0  0  0  0  0  0  0  0  0  0
   21.0599   19.5443   20.2777 H   0  0  0  0  0  0  0  0  0  0  0  0
   19.2844   20.1158   21.3883 C   0  0  0  0  0  0  0  0  0  0  0  0
   19.0677   20.7607   20.5260 H   0  0  0  0  0  0  0  0  0  0  0  0
   18.3402   19.6087   21.6254 H   0  0  0  0  0  0  0  0  0  0  0  0
   19.7116   20.9881   22.5901 C   0  0  0  0  0  0  0  0  0  0  0  0
   20.7955   21.1665   22.5487 H   0  0  0  0  0  0  0  0  0  0  0  0
   19.3428   20.3480   23.9477 C   0  0  0  0  0  0  0  0  0  0  0  0
   19.4356   21.1104   24.7327 H   0  0  0  0  0  0  0  0  0  0  0  0
   18.2862   20.0504   23.9374 H   0  0  0  0  0  0  0  0  0  0  0  0
   20.2080   19.1327   24.3575 C   0  0  0  0  0  0  0  0  0  0  0  0
   21.2288   19.4715   24.5812 H   0  0  0  0  0  0  0  0  0  0  0  0
   19.8123   18.7323   25.3009 H   0  0  0  0  0  0  0  0  0  0  0  0
   19.0372   22.2359   22.4985 O   0  0  0  0  0  0  0  0  0  0  0  0
   18.0792   22.0361   22.5369 H   0  0  0  0  0  0  0  0  0  0  0  0
  1  2  1  0  0  0  0
  1  3  1  0  0  0  0
  1  4  1  0  0  0  0
  4  5  1  0  0  0  0
  4  6  1  0  0  0  0
  4  7  1  0  0  0  0
  7  8  1  0  0  0  0
  7  9  1  0  0  0  0
  7 10  1  0  0  0  0
 10 11  1  0  0  0  0
 10 12  1  0  0  0  0
 10 13  1  0  0  0  0
 13 14  1  0  0  0  0
 13 15  1  0  0  0  0
 15 16  1  0  0  0  0
 15 17  1  0  0  0  0
  1 18  1  0  0  0  0
 15 18  1  0  0  0  0
 18 19  1  0  0  0  0
 18 20  1  0  0  0  0
 13 21  1  0  0  0  0
 21 22  1  0  0  0  0
M  END
> <VConfSearch Rank>
611

> <Conf_Id>
76

> <Delta U+W>
-3.175

> <U+W>
3.248

> <U>
5.336

> <W>
-2.088

> <W(PB)>
-4.098

> <W(SA)>
2.010

> <Valence>
12.390

> <Coulomb>
-9.270

> <VdW>
2.216

> <VdW6>
-8.967

> <VdW12>
11.183

> <Bond>
0.218

> <Angle>
2.426

> <Pdih>
9.745

> <Idih>
0.000

> <Tether>
0.000

$$$$
VeraChem MOL file


 22 22  0  0  0  0  0  0  0  0999 V2000     
   18.4044   19.1147   21.9454 C   0  0  0  0  0  0  0  0  0  0  0  0
   18.1897   18.8652   20.8973 H   0  0  0  0  0  0  0  0  0  0  0  0
   17.4588   18.9711   22.4857 H   0  0  0  0  0  0  0  0  0  0  0  0
   18.8004   20.6089   22.0159 C   0  0  0  0  0  0  0  0  0  0  0  0
   19.3827   20.8764   21.1237 H   0  0  0  0  0  0  0  0  0  0  0  0
   17.8808   21.2069   21.9563 H   0  0  0  0  0  0  0  0  0  0  0  0
   19.5847   21.0189   23.2841 C   0  0  0  0  0  0  0  0  0  0  0  0
   19.2136   20.4814   24.1673 H   0  0  0  0  0  0  0  0  0  0  0  0
   19.3945   22.0839   23.4733 H   0  0  0  0  0  0  0  0  0  0  0  0
   21.1156   20.8332   23.1290 C   0  0  0  0  0  0  0  0  0  0  0  0
   21.4459   21.3190   22.2019 H   0  0  0  0  0  0  0  0  0  0  0  0
   21.6182   21.3752   23.9409 H   0  0  0  0  0  0  0  0  0  0  0  0
   21.6314   19.3762   23.1383 C   0  0  0  0  0  0  0  0  0  0  0  0
   22.6889   19.4123   22.8391 H   0  0  0  0  0  0  0  0  0  0  0  0
   20.9127   18.4162   22.1572 C   0  0  0  0  0  0  0  0  0  0  0  0
   20.9829   18.8085   21.1345 H   0  0  0  0  0  0  0  0  0  0  0  0
   21.4707   17.4711   22.1505 H   0  0  0  0  0  0  0  0  0  0  0  0
   19.4339   18.1042   22.5051 C   0  0  0  0  0  0  0  0  0  0  0  0
   19.1800   17.1110   22.1108 H   0  0  0  0  0  0  0  0  0  0  0  0
   19.3115   18.0247   23.5933 H   0  0  0  0  0  0  0  0  0  0  0  0
   21.5630   18.8621   24.4646 O   0  0  0  0  0  0  0  0  0  0  0  0
   21.8478   17.9268   24.4162 H   0  0  0  0  0  0  0  0  0  0  0  0
  1  2  1  0  0  0  0
  1  3  1  0  0  0  0
  1  4  1  0  0  0  0
  4  5  1  0  0  0  0
  4  6  1  0  0  0  0
  4  7  1  0  0  0  0
  7  8  1  0  0  0  0
  7  9  1  0  0  0  0
  7 10  1  0  0  0  0
 10 11  1  0  0  0  0
 10 12  1  0  0  0  0
 10 13  1  0  0  0  0
 13 14  1  0  0  0  0
 13 15  1  0  0  0  0
 15 16  1  0  0  0  0
 15 17  1  0  0  0  0
  1 18  1  0  0  0  0
 15 18  1  0  0  0  0
 18 19  1  0  0  0  0
 18 20  1  0  0  0  0
 13 21  1  0  0  0  0
 21 22  1  0  0  0  0
M  END
> <VConfSearch Rank>
612

> <Conf_Id>
95

> <Delta U+W>
-2.289

> <U+W>
4.134

> <U>
6.373

> <W>
-2.240

> <W(PB)>
-4.254

> <W(SA)>
2.015

> <Valence>
12.093

> <Coulomb>
-8.058

> <VdW>
2.339

> <VdW6>
-9.683

> <VdW12>
12.022

> <Bond>
0.268

> <Angle>
3.005

> <Pdih>
8.820

> <Idih>
0.000

> <Tether>
0.000

$$$$
VeraChem MOL file


 22 22  0  0  0  0  0  0  0  0999 V2000     
   21.0160   19.2769   24.3151 C   0  0  0  0  0  0  0  0  0  0  0  0
   22.0546   19.5471   24.5500 H   0  0  0  0  0  0  0  0  0  0  0  0
   20.6234   18.7896   25.2180 H   0  0  0  0  0  0  0  0  0  0  0  0
   21.0331   18.2494   23.1583 C   0  0  0  0  0  0  0  0  0  0  0  0
   21.8464   18.4955   22.4623 H   0  0  0  0  0  0  0  0  0  0  0  0
   21.2941   17.2689   23.5793 H   0  0  0  0  0  0  0  0  0  0  0  0
   19.7058   18.1223   22.3750 C   0  0  0  0  0  0  0  0  0  0  0  0
   18.8420   18.2105   23.0480 H   0  0  0  0  0  0  0  0  0  0  0  0
   19.6580   17.1113   21.9484 H   0  0  0  0  0  0  0  0  0  0  0  0
   19.6030   19.1337   21.2055 C   0  0  0  0  0  0  0  0  0  0  0  0
   20.5188   19.0797   20.6027 H   0  0  0  0  0  0  0  0  0  0  0  0
   18.7944   18.8143   20.5353 H   0  0  0  0  0  0  0  0  0  0  0  0
   19.3560   20.6082   21.5986 C   0  0  0  0  0  0  0  0  0  0  0  0
   19.4843   21.2063   20.6849 H   0  0  0  0  0  0  0  0  0  0  0  0
   20.3332   21.1795   22.6564 C   0  0  0  0  0  0  0  0  0  0  0  0
   21.3672   21.0847   22.3009 H   0  0  0  0  0  0  0  0  0  0  0  0
   20.1387   22.2573   22.7289 H   0  0  0  0  0  0  0  0  0  0  0  0
   20.1992   20.5692   24.0759 C   0  0  0  0  0  0  0  0  0  0  0  0
   20.5253   21.3156   24.8127 H   0  0  0  0  0  0  0  0  0  0  0  0
   19.1415   20.3810   24.3029 H   0  0  0  0  0  0  0  0  0  0  0  0
   18.0110   20.7595   22.0427 O   0  0  0  0  0  0  0  0  0  0  0  0
   17.4403   20.3695   21.3496 H   0  0  0  0  0  0  0  0  0  0  0  0
  1  2  1  0  0  0  0
  1  3  1  0  0  0  0
  1  4  1  0  0  0  0
  4  5  1  0  0  0  0
  4  6  1  0  0  0  0
  4  7  1  0  0  0  0
  7  8  1  0  0  0  0
  7  9  1  0  0  0  0
  7 10  1  0  0  0  0
 10 11  1  0  0  0  0
 10 12  1  0  0  0  0
 10 13  1  0  0  0  0
 13 14  1  0  0  0  0
 13 15  1  0  0  0  0
 15 16  1  0  0  0  0
 15 17  1  0  0  0  0
  1 18  1  0  0  0  0
 15 18  1  0  0  0  0
 18 19  1  0  0  0  0
 18 20  1  0  0  0  0
 13 21  1  0  0  0  0
 21 22  1  0  0  0  0
M  END
> <VConfSearch Rank>
613

> <Conf_Id>
41

> <Delta U+W>
-2.114

> <U+W>
4.310

> <U>
6.598

> <W>
-2.289

> <W(PB)>
-4.294

> <W(SA)>
2.005

> <Valence>
12.082

> <Coulomb>
-7.801

> <VdW>
2.317

> <VdW6>
-9.658

> <VdW12>
11.975

> <Bond>
0.267

> <Angle>
3.051

> <Pdih>
8.764

> <Idih>
0.000

> <Tether>
0.000

$$$$
VeraChem MOL file


 22 22  0  0  0  0  0  0  0  0999 V2000     
   19.0914   20.7503   22.1509 C   0  0  0  0  0  0  0  0  0  0  0  0
   18.6061   21.7042   21.9037 H   0  0  0  0  0  0  0  0  0  0  0  0
   18.7139   20.0157   21.4263 H   0  0  0  0  0  0  0  0  0  0  0  0
   18.6740   20.3648   23.5878 C   0  0  0  0  0  0  0  0  0  0  0  0
   19.1127   21.0755   24.3012 H   0  0  0  0  0  0  0  0  0  0  0  0
   17.5854   20.4793   23.6795 H   0  0  0  0  0  0  0  0  0  0  0  0
   19.0451   18.9239   24.0018 C   0  0  0  0  0  0  0  0  0  0  0  0
   18.4412   18.2109   23.4248 H   0  0  0  0  0  0  0  0  0  0  0  0
   18.7439   18.7845   25.0487 H   0  0  0  0  0  0  0  0  0  0  0  0
   20.5513   18.5683   23.8754 C   0  0  0  0  0  0  0  0  0  0  0  0
   21.1609   19.3239   24.3869 H   0  0  0  0  0  0  0  0  0  0  0  0
   20.7185   17.6321   24.4234 H   0  0  0  0  0  0  0  0  0  0  0  0
   21.0796   18.3539   22.4336 C   0  0  0  0  0  0  0  0  0  0  0  0
   22.0322   17.8119   22.5242 H   0  0  0  0  0  0  0  0  0  0  0  0
   21.3915   19.6422   21.6285 C   0  0  0  0  0  0  0  0  0  0  0  0
   22.4627   19.8572   21.7353 H   0  0  0  0  0  0  0  0  0  0  0  0
   21.2434   19.4406   20.5595 H   0  0  0  0  0  0  0  0  0  0  0  0
   20.6181   20.9313   22.0012 C   0  0  0  0  0  0  0  0  0  0  0  0
   21.0334   21.3624   22.9221 H   0  0  0  0  0  0  0  0  0  0  0  0
   20.8082   21.6756   21.2161 H   0  0  0  0  0  0  0  0  0  0  0  0
   20.1840   17.5299   21.6920 O   0  0  0  0  0  0  0  0  0  0  0  0
   20.5865   17.3973   20.8098 H   0  0  0  0  0  0  0  0  0  0  0  0
  1  2  1  0  0  0  0
  1  3  1  0  0  0  0
  1  4  1  0  0  0  0
  4  5  1  0  0  0  0
  4  6  1  0  0  0  0
  4  7  1  0  0  0  0
  7  8  1  0  0  0  0
  7  9  1  0  0  0  0
  7 10  1  0  0  0  0
 10 11  1  0  0  0  0
 10 12  1  0  0  0  0
 10 13  1  0  0  0  0
 13 14  1  0  0  0  0
 13 15  1  0  0  0  0
 15 16  1  0  0  0  0
 15 17  1  0  0  0  0
  1 18  1  0  0  0  0
 15 18  1  0  0  0  0
 18 19  1  0  0  0  0
 18 20  1  0  0  0  0
 13 21  1  0  0  0  0
 21 22  1  0  0  0  0
M  END
> <VConfSearch Rank>
614

> <Conf_Id>
104

> <Delta U+W>
-1.172

> <U+W>
5.252

> <U>
7.482

> <W>
-2.230

> <W(PB)>
-4.220

> <W(SA)>
1.990

> <Valence>
12.309

> <Coulomb>
-7.084

> <VdW>
2.258

> <VdW6>
-9.770

> <VdW12>
12.028

> <Bond>
0.284

> <Angle>
3.491

> <Pdih>
8.535

> <Idih>
0.000

> <Tether>
0.000

$$$$
VeraChem MOL file


 22 22  0  0  0  0  0  0  0  0999 V2000     
   18.7300   19.4082   23.6149 C   0  0  0  0  0  0  0  0  0  0  0  0
   18.4145   18.4876   23.1055 H   0  0  0  0  0  0  0  0  0  0  0  0
   17.9629   19.6112   24.3746 H   0  0  0  0  0  0  0  0  0  0  0  0
   18.7515   20.6025   22.6337 C   0  0  0  0  0  0  0  0  0  0  0  0
   17.7227   20.9644   22.4998 H   0  0  0  0  0  0  0  0  0  0  0  0
   19.2899   21.4414   23.0938 H   0  0  0  0  0  0  0  0  0  0  0  0
   19.3343   20.3067   21.2285 C   0  0  0  0  0  0  0  0  0  0  0  0
   19.7125   21.2469   20.8040 H   0  0  0  0  0  0  0  0  0  0  0  0
   18.5113   19.9998   20.5687 H   0  0  0  0  0  0  0  0  0  0  0  0
   20.4412   19.2221   21.1311 C   0  0  0  0  0  0  0  0  0  0  0  0
   19.9741   18.2291   21.1600 H   0  0  0  0  0  0  0  0  0  0  0  0
   20.9004   19.2950   20.1367 H   0  0  0  0  0  0  0  0  0  0  0  0
   21.5699   19.2706   22.1864 C   0  0  0  0  0  0  0  0  0  0  0  0
   22.4336   18.7355   21.7662 H   0  0  0  0  0  0  0  0  0  0  0  0
   21.1941   18.5500   23.5008 C   0  0  0  0  0  0  0  0  0  0  0  0
   20.9066   17.5170   23.2655 H   0  0  0  0  0  0  0  0  0  0  0  0
   22.0983   18.4715   24.1185 H   0  0  0  0  0  0  0  0  0  0  0  0
   20.0752   19.2011   24.3509 C   0  0  0  0  0  0  0  0  0  0  0  0
   19.8960   18.5561   25.2218 H   0  0  0  0  0  0  0  0  0  0  0  0
   20.4272   20.1578   24.7600 H   0  0  0  0  0  0  0  0  0  0  0  0
   21.9446   20.6130   22.4542 O   0  0  0  0  0  0  0  0  0  0  0  0
   21.1130   21.0401   22.7413 H   0  0  0  0  0  0  0  0  0  0  0  0
  1  2  1  0  0  0  0
  1  3  1  0  0  0  0
  1  4  1  0  0  0  0
  4  5  1  0  0  0  0
  4  6  1  0  0  0  0
  4  7  1  0  0  0  0
  7  8  1  0  0  0  0
  7  9  1  0  0  0  0
  7 10  1  0  0  0  0
 10 11  1  0  0  0  0
 10 12  1  0  0  0  0
 10 13  1  0  0  0  0
 13 14  1  0  0  0  0
 13 15  1  0  0  0  0
 15 16  1  0  0  0  0
 15 17  1  0  0  0  0
  1 18  1  0  0  0  0
 15 18  1  0  0  0  0
 18 19  1  0  0  0  0
 18 20  1  0  0  0  0
 13 21  1  0  0  0  0
 21 22  1  0  0  0  0
M  END
> <VConfSearch Rank>
615

> <Conf_Id>
99

> <Delta U+W>
-3.852

> <U+W>
2.572

> <U>
3.922

> <W>
-1.350

> <W(PB)>
-3.345

> <W(SA)>
1.995

> <Valence>
12.571

> <Coulomb>
-10.581

> <VdW>
1.932

> <VdW6>
-10.483

> <VdW12>
12.415

> <Bond>
0.268

> <Angle>
3.728

> <Pdih>
8.575

> <Idih>
0.000

> <Tether>
0.000

$$$$
VeraChem MOL file


 22 22  0  0  0  0  0  0  0  0999 V2000     
   21.3197   19.0695   21.6991 C   0  0  0  0  0  0  0  0  0  0  0  0
   22.3362   19.1621   21.2923 H   0  0  0  0  0  0  0  0  0  0  0  0
   20.9129   18.1586   21.2399 H   0  0  0  0  0  0  0  0  0  0  0  0
   20.5053   20.3131   21.2365 C   0  0  0  0  0  0  0  0  0  0  0  0
   21.1692   20.9439   20.6294 H   0  0  0  0  0  0  0  0  0  0  0  0
   19.7025   20.0068   20.5526 H   0  0  0  0  0  0  0  0  0  0  0  0
   19.9162   21.1972   22.3653 C   0  0  0  0  0  0  0  0  0  0  0  0
   19.5420   22.1277   21.9170 H   0  0  0  0  0  0  0  0  0  0  0  0
   20.7189   21.5198   23.0400 H   0  0  0  0  0  0  0  0  0  0  0  0
   18.7590   20.5680   23.1898 C   0  0  0  0  0  0  0  0  0  0  0  0
   18.7049   21.0863   24.1558 H   0  0  0  0  0  0  0  0  0  0  0  0
   17.8104   20.7951   22.6853 H   0  0  0  0  0  0  0  0  0  0  0  0
   18.7935   19.0424   23.4535 C   0  0  0  0  0  0  0  0  0  0  0  0
   18.0379   18.8344   24.2246 H   0  0  0  0  0  0  0  0  0  0  0  0
   20.1347   18.4667   23.9710 C   0  0  0  0  0  0  0  0  0  0  0  0
   20.2431   18.7364   25.0295 H   0  0  0  0  0  0  0  0  0  0  0  0
   20.0517   17.3717   23.9578 H   0  0  0  0  0  0  0  0  0  0  0  0
   21.4408   18.8687   23.2313 C   0  0  0  0  0  0  0  0  0  0  0  0
   21.8640   19.7706   23.6907 H   0  0  0  0  0  0  0  0  0  0  0  0
   22.1883   18.0862   23.4201 H   0  0  0  0  0  0  0  0  0  0  0  0
   18.3979   18.3476   22.2813 O   0  0  0  0  0  0  0  0  0  0  0  0
   19.0966   18.5633   21.6315 H   0  0  0  0  0  0  0  0  0  0  0  0
  1  2  1  0  0  0  0
  1  3  1  0  0  0  0
  1  4  1  0  0  0  0
  4  5  1  0  0  0  0
  4  6  1  0  0  0  0
  4  7  1  0  0  0  0
  7  8  1  0  0  0  0
  7  9  1  0  0  0  0
  7 10  1  0  0  0  0
 10 11  1  0  0  0  0
 10 12  1  0  0  0  0
 10 13  1  0  0  0  0
 13 14  1  0  0  0  0
 13 15  1  0  0  0  0
 15 16  1  0  0  0  0
 15 17  1  0  0  0  0
  1 18  1  0  0  0  0
 15 18  1  0  0  0  0
 18 19  1  0  0  0  0
 18 20  1  0  0  0  0
 13 21  1  0  0  0  0
 21 22  1  0  0  0  0
M  END
> <VConfSearch Rank>
616

> <Conf_Id>
98

> <Delta U+W>
0.930

> <U+W>
7.353

> <U>
8.455

> <W>
-1.102

> <W(PB)>
-3.101

> <W(SA)>
2.000

> <Valence>
15.601

> <Coulomb>
-10.573

> <VdW>
3.427

> <VdW6>
-11.360

> <VdW12>
14.787

> <Bond>
0.471

> <Angle>
5.445

> <Pdih>
9.685

> <Idih>
0.000

> <Tether>
0.000

$$$$
VeraChem MOL file


 22 22  0  0  0  0  0  0  0  0999 V2000     
   20.0317   19.6540   20.9405 C   0  0  0  0  0  0  0  0  0  0  0  0
   20.6348   20.5630   21.0618 H   0  0  0  0  0  0  0  0  0  0  0  0
   19.9583   19.5031   19.8549 H   0  0  0  0  0  0  0  0  0  0  0  0
   18.6071   19.8915   21.5029 C   0  0  0  0  0  0  0  0  0  0  0  0
   18.1692   20.7334   20.9493 H   0  0  0  0  0  0  0  0  0  0  0  0
   17.9727   19.0241   21.2756 H   0  0  0  0  0  0  0  0  0  0  0  0
   18.5124   20.2096   23.0210 C   0  0  0  0  0  0  0  0  0  0  0  0
   18.1680   19.3238   23.5703 H   0  0  0  0  0  0  0  0  0  0  0  0
   17.7207   20.9573   23.1655 H   0  0  0  0  0  0  0  0  0  0  0  0
   19.8209   20.7406   23.6639 C   0  0  0  0  0  0  0  0  0  0  0  0
   20.1947   21.5862   23.0733 H   0  0  0  0  0  0  0  0  0  0  0  0
   19.5740   21.1694   24.6446 H   0  0  0  0  0  0  0  0  0  0  0  0
   20.9627   19.6975   23.8430 C   0  0  0  0  0  0  0  0  0  0  0  0
   21.8990   20.1570   23.4946 H   0  0  0  0  0  0  0  0  0  0  0  0
   20.7760   18.3541   23.0942 C   0  0  0  0  0  0  0  0  0  0  0  0
   21.5762   17.6654   23.3947 H   0  0  0  0  0  0  0  0  0  0  0  0
   19.8472   17.8735   23.4244 H   0  0  0  0  0  0  0  0  0  0  0  0
   20.7869   18.4485   21.5480 C   0  0  0  0  0  0  0  0  0  0  0  0
   21.8287   18.4884   21.2017 H   0  0  0  0  0  0  0  0  0  0  0  0
   20.3691   17.5184   21.1394 H   0  0  0  0  0  0  0  0  0  0  0  0
   21.0875   19.3994   25.2289 O   0  0  0  0  0  0  0  0  0  0  0  0
   21.8474   18.7874   25.3190 H   0  0  0  0  0  0  0  0  0  0  0  0
  1  2  1  0  0  0  0
  1  3  1  0  0  0  0
  1  4  1  0  0  0  0
  4  5  1  0  0  0  0
  4  6  1  0  0  0  0
  4  7  1  0  0  0  0
  7  8  1  0  0  0  0
  7  9  1  0  0  0  0
  7 10  1  0  0  0  0
 10 11  1  0  0  0  0
 10 12  1  0  0  0  0
 10 13  1  0  0  0  0
 13 14  1  0  0  0  0
 13 15  1  0  0  0  0
 15 16  1  0  0  0  0
 15 17  1  0  0  0  0
  1 18  1  0  0  0  0
 15 18  1  0  0  0  0
 18 19  1  0  0  0  0
 18 20  1  0  0  0  0
 13 21  1  0  0  0  0
 21 22  1  0  0  0  0
M  END
> <VConfSearch Rank>
617

> <Conf_Id>
141

> <Delta U+W>
0.000

> <U+W>
6.423

> <U>
8.781

> <W>
-2.358

> <W(PB)>
-4.373

> <W(SA)>
2.015

> <Valence>
13.328

> <Coulomb>
-8.387

> <VdW>
3.840

> <VdW6>
-9.744

> <VdW12>
13.584

> <Bond>
0.436

> <Angle>
3.478

> <Pdih>
9.415

> <Idih>
0.000

> <Tether>
0.000

$$$$
VeraChem MOL file


 22 22  0  0  0  0  0  0  0  0999 V2000     
   21.7099   19.8267   22.4712 C   0  0  0  0  0  0  0  0  0  0  0  0
   21.7270   18.9393   21.8240 H   0  0  0  0  0  0  0  0  0  0  0  0
   22.7372   20.2158   22.4804 H   0  0  0  0  0  0  0  0  0  0  0  0
   21.3395   19.4445   23.9247 C   0  0  0  0  0  0  0  0  0  0  0  0
   22.1650   18.8606   24.3541 H   0  0  0  0  0  0  0  0  0  0  0  0
   21.2700   20.3558   24.5343 H   0  0  0  0  0  0  0  0  0  0  0  0
   20.0377   18.6251   24.0797 C   0  0  0  0  0  0  0  0  0  0  0  0
   19.8515   18.4778   25.1523 H   0  0  0  0  0  0  0  0  0  0  0  0
   20.1868   17.6206   23.6607 H   0  0  0  0  0  0  0  0  0  0  0  0
   18.7808   19.2677   23.4436 C   0  0  0  0  0  0  0  0  0  0  0  0
   17.9042   18.7211   23.8155 H   0  0  0  0  0  0  0  0  0  0  0  0
   18.6614   20.3044   23.7843 H   0  0  0  0  0  0  0  0  0  0  0  0
   18.7943   19.2034   21.8998 C   0  0  0  0  0  0  0  0  0  0  0  0
   19.3114   18.2811   21.5983 H   0  0  0  0  0  0  0  0  0  0  0  0
   19.4945   20.3984   21.2136 C   0  0  0  0  0  0  0  0  0  0  0  0
   19.7270   20.0991   20.1835 H   0  0  0  0  0  0  0  0  0  0  0  0
   18.7880   21.2352   21.1314 H   0  0  0  0  0  0  0  0  0  0  0  0
   20.7894   20.9220   21.8838 C   0  0  0  0  0  0  0  0  0  0  0  0
   21.3513   21.4959   21.1343 H   0  0  0  0  0  0  0  0  0  0  0  0
   20.5301   21.6422   22.6717 H   0  0  0  0  0  0  0  0  0  0  0  0
   17.4522   19.1507   21.4315 O   0  0  0  0  0  0  0  0  0  0  0  0
   17.0498   18.3450   21.8180 H   0  0  0  0  0  0  0  0  0  0  0  0
  1  2  1  0  0  0  0
  1  3  1  0  0  0  0
  1  4  1  0  0  0  0
  4  5  1  0  0  0  0
  4  6  1  0  0  0  0
  4  7  1  0  0  0  0
  7  8  1  0  0  0  0
  7  9  1  0  0  0  0
  7 10  1  0  0  0  0
 10 11  1  0  0  0  0
 10 12  1  0  0  0  0
 10 13  1  0  0  0  0
 13 14  1  0  0  0  0
 13 15  1  0  0  0  0
 15 16  1  0  0  0  0
 15 17  1  0  0  0  0
  1 18  1  0  0  0  0
 15 18  1  0  0  0  0
 18 19  1  0  0  0  0
 18 20  1  0  0  0  0
 13 21  1  0  0  0  0
 21 22  1  0  0  0  0
M  END
> <VConfSearch Rank>
618

> <Conf_Id>
144

> <Delta U+W>
-3.291

> <U+W>
3.132

> <U>
5.411

> <W>
-2.279

> <W(PB)>
-4.300

> <W(SA)>
2.021

> <Valence>
11.909

> <Coulomb>
-8.733

> <VdW>
2.236

> <VdW6>
-8.936

> <VdW12>
11.172

> <Bond>
0.223

> <Angle>
2.457

> <Pdih>
9.228

> <Idih>
0.000

> <Tether>
0.000

$$$$
VeraChem MOL file


 22 22  0  0  0  0  0  0  0  0999 V2000     
   20.3248   20.0038   24.2817 C   0  0  0  0  0  0  0  0  0  0  0  0
   20.3804   20.5097   25.2553 H   0  0  0  0  0  0  0  0  0  0  0  0
   20.9840   19.1282   24.3562 H   0  0  0  0  0  0  0  0  0  0  0  0
   20.8343   20.9870   23.2020 C   0  0  0  0  0  0  0  0  0  0  0  0
   20.0210   21.6670   22.9138 H   0  0  0  0  0  0  0  0  0  0  0  0
   21.6097   21.6283   23.6429 H   0  0  0  0  0  0  0  0  0  0  0  0
   21.4283   20.3221   21.9367 C   0  0  0  0  0  0  0  0  0  0  0  0
   22.4778   20.0607   22.1296 H   0  0  0  0  0  0  0  0  0  0  0  0
   21.4507   21.0723   21.1343 H   0  0  0  0  0  0  0  0  0  0  0  0
   20.7026   19.0548   21.4218 C   0  0  0  0  0  0  0  0  0  0  0  0
   21.0054   18.8950   20.3781 H   0  0  0  0  0  0  0  0  0  0  0  0
   21.0683   18.1801   21.9750 H   0  0  0  0  0  0  0  0  0  0  0  0
   19.1607   19.1063   21.5091 C   0  0  0  0  0  0  0  0  0  0  0  0
   18.8160   20.1350   21.3324 H   0  0  0  0  0  0  0  0  0  0  0  0
   18.6274   18.6075   22.8714 C   0  0  0  0  0  0  0  0  0  0  0  0
   17.5475   18.4288   22.7822 H   0  0  0  0  0  0  0  0  0  0  0  0
   19.0774   17.6343   23.1069 H   0  0  0  0  0  0  0  0  0  0  0  0
   18.8553   19.5724   24.0592 C   0  0  0  0  0  0  0  0  0  0  0  0
   18.2288   20.4653   23.9282 H   0  0  0  0  0  0  0  0  0  0  0  0
   18.4916   19.0834   24.9731 H   0  0  0  0  0  0  0  0  0  0  0  0
   18.6274   18.2631   20.4967 O   0  0  0  0  0  0  0  0  0  0  0  0
   18.9567   17.3605   20.6867 H   0  0  0  0  0  0  0  0  0  0  0  0
  1  2  1  0  0  0  0
  1  3  1  0  0  0  0
  1  4  1  0  0  0  0
  4  5  1  0  0  0  0
  4  6  1  0  0  0  0
  4  7  1  0  0  0  0
  7  8  1  0  0  0  0
  7  9  1  0  0  0  0
  7 10  1  0  0  0  0
 10 11  1  0  0  0  0
 10 12  1  0  0  0  0
 10 13  1  0  0  0  0
 13 14  1  0  0  0  0
 13 15  1  0  0  0  0
 15 16  1  0  0  0  0
 15 17  1  0  0  0  0
  1 18  1  0  0  0  0
 15 18  1  0  0  0  0
 18 19  1  0  0  0  0
 18 20  1  0  0  0  0
 13 21  1  0  0  0  0
 21 22  1  0  0  0  0
M  END
> <VConfSearch Rank>
619

> <Conf_Id>
76

> <Delta U+W>
-3.175

> <U+W>
3.248

> <U>
5.336

> <W>
-2.088

> <W(PB)>
-4.098

> <W(SA)>
2.010

> <Valence>
12.390

> <Coulomb>
-9.270

> <VdW>
2.216

> <VdW6>
-8.967

> <VdW12>
11.183

> <Bond>
0.218

> <Angle>
2.426

> <Pdih>
9.745

> <Idih>
0.000

> <Tether>
0.000

$$$$
VeraChem MOL file


 22 22  0  0  0  0  0  0  0  0999 V2000     
   21.3664   19.5679   21.3338 C   0  0  0  0  0  0  0  0  0  0  0  0
   22.1671   20.3055   21.1866 H   0  0  0  0  0  0  0  0  0  0  0  0
   21.5321   18.7924   20.5736 H   0  0  0  0  0  0  0  0  0  0  0  0
   20.0117   20.2621   21.0550 C   0  0  0  0  0  0  0  0  0  0  0  0
   20.0505   21.2994   21.4142 H   0  0  0  0  0  0  0  0  0  0  0  0
   19.8845   20.3331   19.9662 H   0  0  0  0  0  0  0  0  0  0  0  0
   18.7770   19.5541   21.6598 C   0  0  0  0  0  0  0  0  0  0  0  0
   18.8839   18.4620   21.6061 H   0  0  0  0  0  0  0  0  0  0  0  0
   17.9037   19.8054   21.0431 H   0  0  0  0  0  0  0  0  0  0  0  0
   18.4762   20.0077   23.1110 C   0  0  0  0  0  0  0  0  0  0  0  0
   18.4464   21.1042   23.1473 H   0  0  0  0  0  0  0  0  0  0  0  0
   17.4644   19.6763   23.3789 H   0  0  0  0  0  0  0  0  0  0  0  0
   19.4477   19.4999   24.2006 C   0  0  0  0  0  0  0  0  0  0  0  0
   19.2068   20.0502   25.1216 H   0  0  0  0  0  0  0  0  0  0  0  0
   20.9503   19.7382   23.9071 C   0  0  0  0  0  0  0  0  0  0  0  0
   21.1322   20.8082   23.7435 H   0  0  0  0  0  0  0  0  0  0  0  0
   21.5101   19.4783   24.8147 H   0  0  0  0  0  0  0  0  0  0  0  0
   21.5298   18.9153   22.7272 C   0  0  0  0  0  0  0  0  0  0  0  0
   22.6026   18.7556   22.9008 H   0  0  0  0  0  0  0  0  0  0  0  0
   21.0851   17.9116   22.7135 H   0  0  0  0  0  0  0  0  0  0  0  0
   19.2083   18.1159   24.4356 O   0  0  0  0  0  0  0  0  0  0  0  0
   19.8753   17.8246   25.0901 H   0  0  0  0  0  0  0  0  0  0  0  0
  1  2  1  0  0  0  0
  1  3  1  0  0  0  0
  1  4  1  0  0  0  0
  4  5  1  0  0  0  0
  4  6  1  0  0  0  0
  4  7  1  0  0  0  0
  7  8  1  0  0  0  0
  7  9  1  0  0  0  0
  7 10  1  0  0  0  0
 10 11  1  0  0  0  0
 10 12  1  0  0  0  0
 10 13  1  0  0  0  0
 13 14  1  0  0  0  0
 13 15  1  0  0  0  0
 15 16  1  0  0  0  0
 15 17  1  0  0  0  0
  1 18  1  0  0  0  0
 15 18  1  0  0  0  0
 18 19  1  0  0  0  0
 18 20  1  0  0  0  0
 13 21  1  0  0  0  0
 21 22  1  0  0  0  0
M  END
> <VConfSearch Rank>
620

> <Conf_Id>
95

> <Delta U+W>
-2.289

> <U+W>
4.134

> <U>
6.373

> <W>
-2.240

> <W(PB)>
-4.254

> <W(SA)>
2.015

> <Valence>
12.093

> <Coulomb>
-8.058

> <VdW>
2.339

> <VdW6>
-9.683

> <VdW12>
12.022

> <Bond>
0.268

> <Angle>
3.005

> <Pdih>
8.820

> <Idih>
0.000

> <Tether>
0.000

$$$$
VeraChem MOL file


 22 22  0  0  0  0  0  0  0  0999 V2000     
   20.3552   19.0053   20.9269 C   0  0  0  0  0  0  0  0  0  0  0  0
   21.1207   18.2964   20.5831 H   0  0  0  0  0  0  0  0  0  0  0  0
   19.7653   19.2619   20.0364 H   0  0  0  0  0  0  0  0  0  0  0  0
   21.0699   20.2789   21.4384 C   0  0  0  0  0  0  0  0  0  0  0  0
   22.0086   19.9975   21.9344 H   0  0  0  0  0  0  0  0  0  0  0  0
   21.3671   20.8752   20.5649 H   0  0  0  0  0  0  0  0  0  0  0  0
   20.2308   21.1644   22.3888 C   0  0  0  0  0  0  0  0  0  0  0  0
   19.1773   21.1862   22.0781 H   0  0  0  0  0  0  0  0  0  0  0  0
   20.5956   22.1968   22.3027 H   0  0  0  0  0  0  0  0  0  0  0  0
   20.3623   20.7393   23.8731 C   0  0  0  0  0  0  0  0  0  0  0  0
   21.4261   20.6439   24.1263 H   0  0  0  0  0  0  0  0  0  0  0  0
   19.9844   21.5527   24.5060 H   0  0  0  0  0  0  0  0  0  0  0  0
   19.6393   19.4334   24.2752 C   0  0  0  0  0  0  0  0  0  0  0  0
   19.9727   19.1864   25.2935 H   0  0  0  0  0  0  0  0  0  0  0  0
   19.9544   18.2059   23.3840 C   0  0  0  0  0  0  0  0  0  0  0  0
   21.0352   18.0152   23.3775 H   0  0  0  0  0  0  0  0  0  0  0  0
   19.4984   17.3307   23.8645 H   0  0  0  0  0  0  0  0  0  0  0  0
   19.4191   18.2911   21.9308 C   0  0  0  0  0  0  0  0  0  0  0  0
   19.2414   17.2726   21.5603 H   0  0  0  0  0  0  0  0  0  0  0  0
   18.4349   18.7778   21.9236 H   0  0  0  0  0  0  0  0  0  0  0  0
   18.2342   19.6636   24.3121 O   0  0  0  0  0  0  0  0  0  0  0  0
   18.0932   20.4548   24.8710 H   0  0  0  0  0  0  0  0  0  0  0  0
  1  2  1  0  0  0  0
  1  3  1  0  0  0  0
  1  4  1  0  0  0  0
  4  5  1  0  0  0  0
  4  6  1  0  0  0  0
  4  7  1  0  0  0  0
  7  8  1  0  0  0  0
  7  9  1  0  0  0  0
  7 10  1  0  0  0  0
 10 11  1  0  0  0  0
 10 12  1  0  0  0  0
 10 13  1  0  0  0  0
 13 14  1  0  0  0  0
 13 15  1  0  0  0  0
 15 16  1  0  0  0  0
 15 17  1  0  0  0  0
  1 18  1  0  0  0  0
 15 18  1  0  0  0  0
 18 19  1  0  0  0  0
 18 20  1  0  0  0  0
 13 21  1  0  0  0  0
 21 22  1  0  0  0  0
M  END
> <VConfSearch Rank>
621

> <Conf_Id>
41

> <Delta U+W>
-2.114

> <U+W>
4.310

> <U>
6.598

> <W>
-2.289

> <W(PB)>
-4.294

> <W(SA)>
2.005

> <Valence>
12.082

> <Coulomb>
-7.801

> <VdW>
2.317

> <VdW6>
-9.658

> <VdW12>
11.975

> <Bond>
0.267

> <Angle>
3.051

> <Pdih>
8.764

> <Idih>
0.000

> <Tether>
0.000

$$$$
VeraChem MOL file


 22 22  0  0  0  0  0  0  0  0999 V2000     
   20.5749   18.5919   23.9965 C   0  0  0  0  0  0  0  0  0  0  0  0
   20.7187   17.8023   24.7465 H   0  0  0  0  0  0  0  0  0  0  0  0
   21.4782   19.2165   24.0298 H   0  0  0  0  0  0  0  0  0  0  0  0
   19.3292   19.4105   24.4032 C   0  0  0  0  0  0  0  0  0  0  0  0
   18.4307   18.7865   24.3034 H   0  0  0  0  0  0  0  0  0  0  0  0
   19.4060   19.6594   25.4703 H   0  0  0  0  0  0  0  0  0  0  0  0
   19.1350   20.7233   23.6132 C   0  0  0  0  0  0  0  0  0  0  0  0
   19.9303   21.4318   23.8807 H   0  0  0  0  0  0  0  0  0  0  0  0
   18.2003   21.1883   23.9543 H   0  0  0  0  0  0  0  0  0  0  0  0
   19.0651   20.5610   22.0705 C   0  0  0  0  0  0  0  0  0  0  0  0
   18.3242   19.7962   21.8054 H   0  0  0  0  0  0  0  0  0  0  0  0
   18.6818   21.5016   21.6547 H   0  0  0  0  0  0  0  0  0  0  0  0
   20.4091   20.2610   21.3579 C   0  0  0  0  0  0  0  0  0  0  0  0
   20.2594   20.4907   20.2930 H   0  0  0  0  0  0  0  0  0  0  0  0
   20.8928   18.7887   21.4174 C   0  0  0  0  0  0  0  0  0  0  0  0
   20.5652   18.2872   20.4975 H   0  0  0  0  0  0  0  0  0  0  0  0
   21.9899   18.7708   21.3802 H   0  0  0  0  0  0  0  0  0  0  0  0
   20.4236   17.9226   22.6126 C   0  0  0  0  0  0  0  0  0  0  0  0
   19.3808   17.6122   22.4618 H   0  0  0  0  0  0  0  0  0  0  0  0
   21.0108   16.9943   22.6054 H   0  0  0  0  0  0  0  0  0  0  0  0
   21.4345   21.1227   21.8446 O   0  0  0  0  0  0  0  0  0  0  0  0
   22.2434   20.9162   21.3339 H   0  0  0  0  0  0  0  0  0  0  0  0
  1  2  1  0  0  0  0
  1  3  1  0  0  0  0
  1  4  1  0  0  0  0
  4  5  1  0  0  0  0
  4  6  1  0  0  0  0
  4  7  1  0  0  0  0
  7  8  1  0  0  0  0
  7  9  1  0  0  0  0
  7 10  1  0  0  0  0
 10 11  1  0  0  0  0
 10 12  1  0  0  0  0
 10 13  1  0  0  0  0
 13 14  1  0  0  0  0
 13 15  1  0  0  0  0
 15 16  1  0  0  0  0
 15 17  1  0  0  0  0
  1 18  1  0  0  0  0
 15 18  1  0  0  0  0
 18 19  1  0  0  0  0
 18 20  1  0  0  0  0
 13 21  1  0  0  0  0
 21 22  1  0  0  0  0
M  END
> <VConfSearch Rank>
622

> <Conf_Id>
104

> <Delta U+W>
-1.172

> <U+W>
5.252

> <U>
7.482

> <W>
-2.230

> <W(PB)>
-4.220

> <W(SA)>
1.990

> <Valence>
12.309

> <Coulomb>
-7.084

> <VdW>
2.258

> <VdW6>
-9.770

> <VdW12>
12.028

> <Bond>
0.284

> <Angle>
3.491

> <Pdih>
8.535

> <Idih>
0.000

> <Tether>
0.000

$$$$
VeraChem MOL file


 22 22  0  0  0  0  0  0  0  0999 V2000     
   20.7379   18.4803   23.6815 C   0  0  0  0  0  0  0  0  0  0  0  0
   21.7613   18.7120   23.3566 H   0  0  0  0  0  0  0  0  0  0  0  0
   20.8312   17.6736   24.4215 H   0  0  0  0  0  0  0  0  0  0  0  0
   19.8922   17.9455   22.5033 C   0  0  0  0  0  0  0  0  0  0  0  0
   20.1403   16.8868   22.3461 H   0  0  0  0  0  0  0  0  0  0  0  0
   18.8313   17.9495   22.7858 H   0  0  0  0  0  0  0  0  0  0  0  0
   20.0826   18.6803   21.1522 C   0  0  0  0  0  0  0  0  0  0  0  0
   19.1711   18.5481   20.5529 H   0  0  0  0  0  0  0  0  0  0  0  0
   20.8773   18.1719   20.5892 H   0  0  0  0  0  0  0  0  0  0  0  0
   20.4413   20.1901   21.2076 C   0  0  0  0  0  0  0  0  0  0  0  0
   21.5108   20.2969   21.4306 H   0  0  0  0  0  0  0  0  0  0  0  0
   20.3148   20.6056   20.1995 H   0  0  0  0  0  0  0  0  0  0  0  0
   19.6384   21.0692   22.1938 C   0  0  0  0  0  0  0  0  0  0  0  0
   19.7160   22.1084   21.8433 H   0  0  0  0  0  0  0  0  0  0  0  0
   20.2112   21.0378   23.6288 C   0  0  0  0  0  0  0  0  0  0  0  0
   21.2674   21.3347   23.5924 H   0  0  0  0  0  0  0  0  0  0  0  0
   19.7057   21.8157   24.2160 H   0  0  0  0  0  0  0  0  0  0  0  0
   20.0934   19.6948   24.3912 C   0  0  0  0  0  0  0  0  0  0  0  0
   20.5778   19.8197   25.3692 H   0  0  0  0  0  0  0  0  0  0  0  0
   19.0382   19.4819   24.6097 H   0  0  0  0  0  0  0  0  0  0  0  0
   18.2718   20.6865   22.2039 O   0  0  0  0  0  0  0  0  0  0  0  0
   18.2914   19.7382   22.4417 H   0  0  0  0  0  0  0  0  0  0  0  0
  1  2  1  0  0  0  0
  1  3  1  0  0  0  0
  1  4  1  0  0  0  0
  4  5  1  0  0  0  0
  4  6  1  0  0  0  0
  4  7  1  0  0  0  0
  7  8  1  0  0  0  0
  7  9  1  0  0  0  0
  7 10  1  0  0  0  0
 10 11  1  0  0  0  0
 10 12  1  0  0  0  0
 10 13  1  0  0  0  0
 13 14  1  0  0  0  0
 13 15  1  0  0  0  0
 15 16  1  0  0  0  0
 15 17  1  0  0  0  0
  1 18  1  0  0  0  0
 15 18  1  0  0  0  0
 18 19  1  0  0  0  0
 18 20  1  0  0  0  0
 13 21  1  0  0  0  0
 21 22  1  0  0  0  0
M  END
> <VConfSearch Rank>
623

> <Conf_Id>
99

> <Delta U+W>
-3.852

> <U+W>
2.572

> <U>
3.922

> <W>
-1.350

> <W(PB)>
-3.345

> <W(SA)>
1.995

> <Valence>
12.571

> <Coulomb>
-10.581

> <VdW>
1.932

> <VdW6>
-10.483

> <VdW12>
12.415

> <Bond>
0.268

> <Angle>
3.728

> <Pdih>
8.575

> <Idih>
0.000

> <Tether>
0.000

$$$$
VeraChem MOL file


 22 22  0  0  0  0  0  0  0  0999 V2000     
   19.9008   20.0278   24.2770 C   0  0  0  0  0  0  0  0  0  0  0  0
   19.4249   20.6143   25.0750 H   0  0  0  0  0  0  0  0  0  0  0  0
   20.6280   19.3863   24.7925 H   0  0  0  0  0  0  0  0  0  0  0  0
   20.6373   21.0198   23.3297 C   0  0  0  0  0  0  0  0  0  0  0  0
   20.4803   22.0357   23.7178 H   0  0  0  0  0  0  0  0  0  0  0  0
   21.7225   20.8605   23.3846 H   0  0  0  0  0  0  0  0  0  0  0  0
   20.1850   21.0056   21.8472 C   0  0  0  0  0  0  0  0  0  0  0  0
   20.6344   21.8699   21.3396 H   0  0  0  0  0  0  0  0  0  0  0  0
   19.1040   21.1826   21.7881 H   0  0  0  0  0  0  0  0  0  0  0  0
   20.5534   19.7331   21.0348 C   0  0  0  0  0  0  0  0  0  0  0  0
   19.8716   19.6643   20.1774 H   0  0  0  0  0  0  0  0  0  0  0  0
   21.5519   19.8758   20.6006 H   0  0  0  0  0  0  0  0  0  0  0  0
   20.5550   18.3702   21.7701 C   0  0  0  0  0  0  0  0  0  0  0  0
   20.6113   17.5903   20.9971 H   0  0  0  0  0  0  0  0  0  0  0  0
   19.3094   18.0569   22.6352 C   0  0  0  0  0  0  0  0  0  0  0  0
   18.4807   17.7898   21.9670 H   0  0  0  0  0  0  0  0  0  0  0  0
   19.5254   17.1452   23.2082 H   0  0  0  0  0  0  0  0  0  0  0  0
   18.8063   19.1481   23.6206 C   0  0  0  0  0  0  0  0  0  0  0  0
   18.0683   19.7871   23.1201 H   0  0  0  0  0  0  0  0  0  0  0  0
   18.2412   18.6460   24.4178 H   0  0  0  0  0  0  0  0  0  0  0  0
   21.7260   18.2587   22.5635 O   0  0  0  0  0  0  0  0  0  0  0  0
   21.6282   18.9678   23.2303 H   0  0  0  0  0  0  0  0  0  0  0  0
  1  2  1  0  0  0  0
  1  3  1  0  0  0  0
  1  4  1  0  0  0  0
  4  5  1  0  0  0  0
  4  6  1  0  0  0  0
  4  7  1  0  0  0  0
  7  8  1  0  0  0  0
  7  9  1  0  0  0  0
  7 10  1  0  0  0  0
 10 11  1  0  0  0  0
 10 12  1  0  0  0  0
 10 13  1  0  0  0  0
 13 14  1  0  0  0  0
 13 15  1  0  0  0  0
 15 16  1  0  0  0  0
 15 17  1  0  0  0  0
  1 18  1  0  0  0  0
 15 18  1  0  0  0  0
 18 19  1  0  0  0  0
 18 20  1  0  0  0  0
 13 21  1  0  0  0  0
 21 22  1  0  0  0  0
M  END
> <VConfSearch Rank>
624

> <Conf_Id>
98

> <Delta U+W>
0.930

> <U+W>
7.353

> <U>
8.455

> <W>
-1.102

> <W(PB)>
-3.101

> <W(SA)>
2.000

> <Valence>
15.601

> <Coulomb>
-10.573

> <VdW>
3.427

> <VdW6>
-11.360

> <VdW12>
14.787

> <Bond>
0.471

> <Angle>
5.445

> <Pdih>
9.685

> <Idih>
0.000

> <Tether>
0.000

$$$$
VeraChem MOL file


 22 22  0  0  0  0  0  0  0  0999 V2000     
   21.3984   19.8387   21.6806 C   0  0  0  0  0  0  0  0  0  0  0  0
   20.7268   19.8184   20.8127 H   0  0  0  0  0  0  0  0  0  0  0  0
   22.3871   20.0854   21.2704 H   0  0  0  0  0  0  0  0  0  0  0  0
   21.4680   18.4296   22.3222 C   0  0  0  0  0  0  0  0  0  0  0  0
   21.8347   17.7345   21.5545 H   0  0  0  0  0  0  0  0  0  0  0  0
   22.2276   18.4240   23.1157 H   0  0  0  0  0  0  0  0  0  0  0  0
   20.1349   17.8659   22.8876 C   0  0  0  0  0  0  0  0  0  0  0  0
   20.1267   17.9459   23.9824 H   0  0  0  0  0  0  0  0  0  0  0  0
   20.1050   16.7871   22.6828 H   0  0  0  0  0  0  0  0  0  0  0  0
   18.8495   18.5170   22.3118 C   0  0  0  0  0  0  0  0  0  0  0  0
   18.8930   18.4913   21.2158 H   0  0  0  0  0  0  0  0  0  0  0  0
   17.9933   17.8811   22.5746 H   0  0  0  0  0  0  0  0  0  0  0  0
   18.5575   19.9735   22.7778 C   0  0  0  0  0  0  0  0  0  0  0  0
   18.2852   20.5646   21.8915 H   0  0  0  0  0  0  0  0  0  0  0  0
   19.7189   20.6978   23.5036 C   0  0  0  0  0  0  0  0  0  0  0  0
   19.3538   21.6595   23.8869 H   0  0  0  0  0  0  0  0  0  0  0  0
   20.0102   20.1280   24.3941 H   0  0  0  0  0  0  0  0  0  0  0  0
   20.9721   20.9774   22.6368 C   0  0  0  0  0  0  0  0  0  0  0  0
   20.7945   21.8796   22.0358 H   0  0  0  0  0  0  0  0  0  0  0  0
   21.8100   21.2201   23.3043 H   0  0  0  0  0  0  0  0  0  0  0  0
   17.4481   19.9476   23.6688 O   0  0  0  0  0  0  0  0  0  0  0  0
   17.2500   20.8788   23.9006 H   0  0  0  0  0  0  0  0  0  0  0  0
  1  2  1  0  0  0  0
  1  3  1  0  0  0  0
  1  4  1  0  0  0  0
  4  5  1  0  0  0  0
  4  6  1  0  0  0  0
  4  7  1  0  0  0  0
  7  8  1  0  0  0  0
  7  9  1  0  0  0  0
  7 10  1  0  0  0  0
 10 11  1  0  0  0  0
 10 12  1  0  0  0  0
 10 13  1  0  0  0  0
 13 14  1  0  0  0  0
 13 15  1  0  0  0  0
 15 16  1  0  0  0  0
 15 17  1  0  0  0  0
  1 18  1  0  0  0  0
 15 18  1  0  0  0  0
 18 19  1  0  0  0  0
 18 20  1  0  0  0  0
 13 21  1  0  0  0  0
 21 22  1  0  0  0  0
M  END
> <VConfSearch Rank>
625

> <Conf_Id>
141

> <Delta U+W>
0.000

> <U+W>
6.423

> <U>
8.781

> <W>
-2.358

> <W(PB)>
-4.373

> <W(SA)>
2.015

> <Valence>
13.328

> <Coulomb>
-8.387

> <VdW>
3.840

> <VdW6>
-9.744

> <VdW12>
13.584

> <Bond>
0.436

> <Angle>
3.478

> <Pdih>
9.415

> <Idih>
0.000

> <Tether>
0.000

$$$$
VeraChem MOL file


 22 22  0  0  0  0  0  0  0  0999 V2000     
   18.7094   20.1449   21.5875 C   0  0  0  0  0  0  0  0  0  0  0  0
   19.4780   20.4784   20.8771 H   0  0  0  0  0  0  0  0  0  0  0  0
   17.7431   20.3326   21.0997 H   0  0  0  0  0  0  0  0  0  0  0  0
   18.7519   20.9875   22.8851 C   0  0  0  0  0  0  0  0  0  0  0  0
   18.4224   22.0088   22.6500 H   0  0  0  0  0  0  0  0  0  0  0  0
   18.0161   20.5936   23.5994 H   0  0  0  0  0  0  0  0  0  0  0  0
   20.1350   21.0730   23.5707 C   0  0  0  0  0  0  0  0  0  0  0  0
   20.0189   21.6357   24.5070 H   0  0  0  0  0  0  0  0  0  0  0  0
   20.8157   21.6676   22.9463 H   0  0  0  0  0  0  0  0  0  0  0  0
   20.7908   19.7079   23.8928 C   0  0  0  0  0  0  0  0  0  0  0  0
   21.6338   19.8963   24.5705 H   0  0  0  0  0  0  0  0  0  0  0  0
   20.0936   19.0638   24.4442 H   0  0  0  0  0  0  0  0  0  0  0  0
   21.3133   18.9847   22.6312 C   0  0  0  0  0  0  0  0  0  0  0  0
   21.6486   19.7459   21.9122 H   0  0  0  0  0  0  0  0  0  0  0  0
   20.2721   18.0818   21.9313 C   0  0  0  0  0  0  0  0  0  0  0  0
   20.6321   17.8894   20.9124 H   0  0  0  0  0  0  0  0  0  0  0  0
   20.2451   17.1039   22.4304 H   0  0  0  0  0  0  0  0  0  0  0  0
   18.8235   18.6254   21.8526 C   0  0  0  0  0  0  0  0  0  0  0  0
   18.3006   18.0835   21.0528 H   0  0  0  0  0  0  0  0  0  0  0  0
   18.2862   18.3748   22.7774 H   0  0  0  0  0  0  0  0  0  0  0  0
   22.4253   18.1754   22.9942 O   0  0  0  0  0  0  0  0  0  0  0  0
   23.1033   18.7777   23.3660 H   0  0  0  0  0  0  0  0  0  0  0  0
  1  2  1  0  0  0  0
  1  3  1  0  0  0  0
  1  4  1  0  0  0  0
  4  5  1  0  0  0  0
  4  6  1  0  0  0  0
  4  7  1  0  0  0  0
  7  8  1  0  0  0  0
  7  9  1  0  0  0  0
  7 10  1  0  0  0  0
 10 11  1  0  0  0  0
 10 12  1  0  0  0  0
 10 13  1  0  0  0  0
 13 14  1  0  0  0  0
 13 15  1  0  0  0  0
 15 16  1  0  0  0  0
 15 17  1  0  0  0  0
  1 18  1  0  0  0  0
 15 18  1  0  0  0  0
 18 19  1  0  0  0  0
 18 20  1  0  0  0  0
 13 21  1  0  0  0  0
 21 22  1  0  0  0  0
M  END
> <VConfSearch Rank>
626

> <Conf_Id>
144

> <Delta U+W>
-3.291

> <U+W>
3.132

> <U>
5.411

> <W>
-2.279

> <W(PB)>
-4.300

> <W(SA)>
2.021

> <Valence>
11.909

> <Coulomb>
-8.733

> <VdW>
2.236

> <VdW6>
-8.936

> <VdW12>
11.172

> <Bond>
0.223

> <Angle>
2.457

> <Pdih>
9.228

> <Idih>
0.000

> <Tether>
0.000

$$$$
VeraChem MOL file


 22 22  0  0  0  0  0  0  0  0999 V2000     
   20.8089   18.1619   23.2124 C   0  0  0  0  0  0  0  0  0  0  0  0
   21.5830   17.4737   23.5786 H   0  0  0  0  0  0  0  0  0  0  0  0
   19.8884   17.5681   23.1307 H   0  0  0  0  0  0  0  0  0  0  0  0
   21.2517   18.6857   21.8261 C   0  0  0  0  0  0  0  0  0  0  0  0
   21.9544   19.5197   21.9579 H   0  0  0  0  0  0  0  0  0  0  0  0
   21.8235   17.8990   21.3151 H   0  0  0  0  0  0  0  0  0  0  0  0
   20.0984   19.1212   20.8900 C   0  0  0  0  0  0  0  0  0  0  0  0
   19.6998   18.2348   20.3778 H   0  0  0  0  0  0  0  0  0  0  0  0
   20.5205   19.7574   20.1000 H   0  0  0  0  0  0  0  0  0  0  0  0
   18.9155   19.8647   21.5578 C   0  0  0  0  0  0  0  0  0  0  0  0
   18.3615   20.3913   20.7689 H   0  0  0  0  0  0  0  0  0  0  0  0
   18.2150   19.1285   21.9726 H   0  0  0  0  0  0  0  0  0  0  0  0
   19.3167   20.8673   22.6630 C   0  0  0  0  0  0  0  0  0  0  0  0
   20.2784   21.3336   22.4057 H   0  0  0  0  0  0  0  0  0  0  0  0
   19.4179   20.2048   24.0557 C   0  0  0  0  0  0  0  0  0  0  0  0
   19.4518   20.9938   24.8189 H   0  0  0  0  0  0  0  0  0  0  0  0
   18.5045   19.6293   24.2548 H   0  0  0  0  0  0  0  0  0  0  0  0
   20.6485   19.2896   24.2600 C   0  0  0  0  0  0  0  0  0  0  0  0
   21.5596   19.9033   24.2778 H   0  0  0  0  0  0  0  0  0  0  0  0
   20.5754   18.8338   25.2568 H   0  0  0  0  0  0  0  0  0  0  0  0
   18.3202   21.8784   22.7322 O   0  0  0  0  0  0  0  0  0  0  0  0
   17.4823   21.4258   22.9607 H   0  0  0  0  0  0  0  0  0  0  0  0
  1  2  1  0  0  0  0
  1  3  1  0  0  0  0
  1  4  1  0  0  0  0
  4  5  1  0  0  0  0
  4  6  1  0  0  0  0
  4  7  1  0  0  0  0
  7  8  1  0  0  0  0
  7  9  1  0  0  0  0
  7 10  1  0  0  0  0
 10 11  1  0  0  0  0
 10 12  1  0  0  0  0
 10 13  1  0  0  0  0
 13 14  1  0  0  0  0
 13 15  1  0  0  0  0
 15 16  1  0  0  0  0
 15 17  1  0  0  0  0
  1 18  1  0  0  0  0
 15 18  1  0  0  0  0
 18 19  1  0  0  0  0
 18 20  1  0  0  0  0
 13 21  1  0  0  0  0
 21 22  1  0  0  0  0
M  END
> <VConfSearch Rank>
627

> <Conf_Id>
76

> <Delta U+W>
-3.175

> <U+W>
3.248

> <U>
5.336

> <W>
-2.088

> <W(PB)>
-4.098

> <W(SA)>
2.010

> <Valence>
12.390

> <Coulomb>
-9.270

> <VdW>
2.216

> <VdW6>
-8.967

> <VdW12>
11.183

> <Bond>
0.218

> <Angle>
2.426

> <Pdih>
9.745

> <Idih>
0.000

> <Tether>
0.000

$$$$
VeraChem MOL file


 22 22  0  0  0  0  0  0  0  0999 V2000     
   20.8082   18.0143   21.9205 C   0  0  0  0  0  0  0  0  0  0  0  0
   21.2705   17.1674   22.4457 H   0  0  0  0  0  0  0  0  0  0  0  0
   20.7936   17.7343   20.8584 H   0  0  0  0  0  0  0  0  0  0  0  0
   21.7200   19.2515   22.1005 C   0  0  0  0  0  0  0  0  0  0  0  0
   22.1613   19.2385   23.1063 H   0  0  0  0  0  0  0  0  0  0  0  0
   22.5665   19.1530   21.4073 H   0  0  0  0  0  0  0  0  0  0  0  0
   21.0294   20.6140   21.8593 C   0  0  0  0  0  0  0  0  0  0  0  0
   20.3073   20.5486   21.0340 H   0  0  0  0  0  0  0  0  0  0  0  0
   21.7954   21.3325   21.5377 H   0  0  0  0  0  0  0  0  0  0  0  0
   20.3574   21.1805   23.1359 C   0  0  0  0  0  0  0  0  0  0  0  0
   21.0811   21.1667   23.9609 H   0  0  0  0  0  0  0  0  0  0  0  0
   20.1226   22.2397   22.9675 H   0  0  0  0  0  0  0  0  0  0  0  0
   19.0629   20.4732   23.5976 C   0  0  0  0  0  0  0  0  0  0  0  0
   18.8236   20.8696   24.5950 H   0  0  0  0  0  0  0  0  0  0  0  0
   19.1652   18.9331   23.7318 C   0  0  0  0  0  0  0  0  0  0  0  0
   19.9755   18.6730   24.4251 H   0  0  0  0  0  0  0  0  0  0  0  0
   18.2422   18.5804   24.2099 H   0  0  0  0  0  0  0  0  0  0  0  0
   19.3435   18.1656   22.3960 C   0  0  0  0  0  0  0  0  0  0  0  0
   18.9196   17.1584   22.5076 H   0  0  0  0  0  0  0  0  0  0  0  0
   18.7514   18.6439   21.6047 H   0  0  0  0  0  0  0  0  0  0  0  0
   17.9990   20.8184   22.7162 O   0  0  0  0  0  0  0  0  0  0  0  0
   17.2158   20.3112   23.0124 H   0  0  0  0  0  0  0  0  0  0  0  0
  1  2  1  0  0  0  0
  1  3  1  0  0  0  0
  1  4  1  0  0  0  0
  4  5  1  0  0  0  0
  4  6  1  0  0  0  0
  4  7  1  0  0  0  0
  7  8  1  0  0  0  0
  7  9  1  0  0  0  0
  7 10  1  0  0  0  0
 10 11  1  0  0  0  0
 10 12  1  0  0  0  0
 10 13  1  0  0  0  0
 13 14  1  0  0  0  0
 13 15  1  0  0  0  0
 15 16  1  0  0  0  0
 15 17  1  0  0  0  0
  1 18  1  0  0  0  0
 15 18  1  0  0  0  0
 18 19  1  0  0  0  0
 18 20  1  0  0  0  0
 13 21  1  0  0  0  0
 21 22  1  0  0  0  0
M  END
> <VConfSearch Rank>
628

> <Conf_Id>
95

> <Delta U+W>
-2.289

> <U+W>
4.134

> <U>
6.373

> <W>
-2.240

> <W(PB)>
-4.254

> <W(SA)>
2.015

> <Valence>
12.093

> <Coulomb>
-8.058

> <VdW>
2.339

> <VdW6>
-9.683

> <VdW12>
12.022

> <Bond>
0.268

> <Angle>
3.005

> <Pdih>
8.820

> <Idih>
0.000

> <Tether>
0.000

$$$$
VeraChem MOL file


 22 22  0  0  0  0  0  0  0  0999 V2000     
   20.2090   21.5134   22.9786 C   0  0  0  0  0  0  0  0  0  0  0  0
   19.5773   22.1643   23.5984 H   0  0  0  0  0  0  0  0  0  0  0  0
   20.9935   22.1634   22.5677 H   0  0  0  0  0  0  0  0  0  0  0  0
   19.3476   20.9699   21.8137 C   0  0  0  0  0  0  0  0  0  0  0  0
   18.3247   20.7869   22.1695 H   0  0  0  0  0  0  0  0  0  0  0  0
   19.2582   21.7632   21.0591 H   0  0  0  0  0  0  0  0  0  0  0  0
   19.8935   19.6915   21.1361 C   0  0  0  0  0  0  0  0  0  0  0  0
   20.9898   19.7180   21.0719 H   0  0  0  0  0  0  0  0  0  0  0  0
   19.5278   19.6726   20.1006 H   0  0  0  0  0  0  0  0  0  0  0  0
   19.4100   18.3937   21.8314 C   0  0  0  0  0  0  0  0  0  0  0  0
   18.3204   18.4382   21.9567 H   0  0  0  0  0  0  0  0  0  0  0  0
   19.5911   17.5462   21.1576 H   0  0  0  0  0  0  0  0  0  0  0  0
   20.0526   18.0734   23.2004 C   0  0  0  0  0  0  0  0  0  0  0  0
   19.4841   17.2359   23.6299 H   0  0  0  0  0  0  0  0  0  0  0  0
   20.0105   19.2277   24.2330 C   0  0  0  0  0  0  0  0  0  0  0  0
   18.9724   19.5408   24.4027 H   0  0  0  0  0  0  0  0  0  0  0  0
   20.3609   18.8197   25.1899 H   0  0  0  0  0  0  0  0  0  0  0  0
   20.8881   20.4577   23.8834 C   0  0  0  0  0  0  0  0  0  0  0  0
   21.1862   20.9547   24.8164 H   0  0  0  0  0  0  0  0  0  0  0  0
   21.8264   20.1268   23.4189 H   0  0  0  0  0  0  0  0  0  0  0  0
   21.3957   17.6426   23.0025 O   0  0  0  0  0  0  0  0  0  0  0  0
   21.3667   16.9291   22.3330 H   0  0  0  0  0  0  0  0  0  0  0  0
  1  2  1  0  0  0  0
  1  3  1  0  0  0  0
  1  4  1  0  0  0  0
  4  5  1  0  0  0  0
  4  6  1  0  0  0  0
  4  7  1  0  0  0  0
  7  8  1  0  0  0  0
  7  9  1  0  0  0  0
  7 10  1  0  0  0  0
 10 11  1  0  0  0  0
 10 12  1  0  0  0  0
 10 13  1  0  0  0  0
 13 14  1  0  0  0  0
 13 15  1  0  0  0  0
 15 16  1  0  0  0  0
 15 17  1  0  0  0  0
  1 18  1  0  0  0  0
 15 18  1  0  0  0  0
 18 19  1  0  0  0  0
 18 20  1  0  0  0  0
 13 21  1  0  0  0  0
 21 22  1  0  0  0  0
M  END
> <VConfSearch Rank>
629

> <Conf_Id>
41

> <Delta U+W>
-2.114

> <U+W>
4.310

> <U>
6.598

> <W>
-2.289

> <W(PB)>
-4.294

> <W(SA)>
2.005

> <Valence>
12.082

> <Coulomb>
-7.801

> <VdW>
2.317

> <VdW6>
-9.658

> <VdW12>
11.975

> <Bond>
0.267

> <Angle>
3.051

> <Pdih>
8.764

> <Idih>
0.000

> <Tether>
0.000

$$$$
VeraChem MOL file


 22 22  0  0  0  0  0  0  0  0999 V2000     
   18.8884   20.1199   21.7129 C   0  0  0  0  0  0  0  0  0  0  0  0
   17.9672   20.2957   21.1409 H   0  0  0  0  0  0  0  0  0  0  0  0
   19.4264   21.0776   21.7323 H   0  0  0  0  0  0  0  0  0  0  0  0
   19.7115   19.0458   20.9671 C   0  0  0  0  0  0  0  0  0  0  0  0
   19.1858   18.0824   21.0128 H   0  0  0  0  0  0  0  0  0  0  0  0
   19.7560   19.3142   19.9029 H   0  0  0  0  0  0  0  0  0  0  0  0
   21.1568   18.8691   21.4820 C   0  0  0  0  0  0  0  0  0  0  0  0
   21.7426   19.7662   21.2416 H   0  0  0  0  0  0  0  0  0  0  0  0
   21.6215   18.0531   20.9124 H   0  0  0  0  0  0  0  0  0  0  0  0
   21.2829   18.5421   22.9948 C   0  0  0  0  0  0  0  0  0  0  0  0
   20.6373   17.6928   23.2517 H   0  0  0  0  0  0  0  0  0  0  0  0
   22.3097   18.1991   23.1758 H   0  0  0  0  0  0  0  0  0  0  0  0
   21.0164   19.7191   23.9683 C   0  0  0  0  0  0  0  0  0  0  0  0
   21.4462   19.4295   24.9382 H   0  0  0  0  0  0  0  0  0  0  0  0
   19.5254   20.0491   24.2389 C   0  0  0  0  0  0  0  0  0  0  0  0
   19.2254   19.5310   25.1590 H   0  0  0  0  0  0  0  0  0  0  0  0
   19.4316   21.1190   24.4672 H   0  0  0  0  0  0  0  0  0  0  0  0
   18.4948   19.6846   23.1417 C   0  0  0  0  0  0  0  0  0  0  0  0
   18.2968   18.6044   23.1600 H   0  0  0  0  0  0  0  0  0  0  0  0
   17.5415   20.1630   23.4045 H   0  0  0  0  0  0  0  0  0  0  0  0
   21.6954   20.8925   23.5291 O   0  0  0  0  0  0  0  0  0  0  0  0
   21.5243   21.5855   24.1988 H   0  0  0  0  0  0  0  0  0  0  0  0
  1  2  1  0  0  0  0
  1  3  1  0  0  0  0
  1  4  1  0  0  0  0
  4  5  1  0  0  0  0
  4  6  1  0  0  0  0
  4  7  1  0  0  0  0
  7  8  1  0  0  0  0
  7  9  1  0  0  0  0
  7 10  1  0  0  0  0
 10 11  1  0  0  0  0
 10 12  1  0  0  0  0
 10 13  1  0  0  0  0
 13 14  1  0  0  0  0
 13 15  1  0  0  0  0
 15 16  1  0  0  0  0
 15 17  1  0  0  0  0
  1 18  1  0  0  0  0
 15 18  1  0  0  0  0
 18 19  1  0  0  0  0
 18 20  1  0  0  0  0
 13 21  1  0  0  0  0
 21 22  1  0  0  0  0
M  END
> <VConfSearch Rank>
630

> <Conf_Id>
104

> <Delta U+W>
-1.172

> <U+W>
5.252

> <U>
7.482

> <W>
-2.230

> <W(PB)>
-4.220

> <W(SA)>
1.990

> <Valence>
12.309

> <Coulomb>
-7.084

> <VdW>
2.258

> <VdW6>
-9.770

> <VdW12>
12.028

> <Bond>
0.284

> <Angle>
3.491

> <Pdih>
8.535

> <Idih>
0.000

> <Tether>
0.000

$$$$
VeraChem MOL file


 22 22  0  0  0  0  0  0  0  0999 V2000     
   19.7139   21.1878   22.8204 C   0  0  0  0  0  0  0  0  0  0  0  0
   20.7132   21.4351   23.2037 H   0  0  0  0  0  0  0  0  0  0  0  0
   19.1503   22.1308   22.8154 H   0  0  0  0  0  0  0  0  0  0  0  0
   18.9862   20.2071   23.7682 C   0  0  0  0  0  0  0  0  0  0  0  0
   18.5800   20.7758   24.6160 H   0  0  0  0  0  0  0  0  0  0  0  0
   18.1074   19.7924   23.2574 H   0  0  0  0  0  0  0  0  0  0  0  0
   19.8547   19.0594   24.3427 C   0  0  0  0  0  0  0  0  0  0  0  0
   19.1949   18.2191   24.5996 H   0  0  0  0  0  0  0  0  0  0  0  0
   20.2852   19.3936   25.2966 H   0  0  0  0  0  0  0  0  0  0  0  0
   21.0215   18.5395   23.4598 C   0  0  0  0  0  0  0  0  0  0  0  0
   21.8673   19.2349   23.5370 H   0  0  0  0  0  0  0  0  0  0  0  0
   21.3822   17.5984   23.8947 H   0  0  0  0  0  0  0  0  0  0  0  0
   20.7171   18.2921   21.9644 C   0  0  0  0  0  0  0  0  0  0  0  0
   21.4704   17.5839   21.5902 H   0  0  0  0  0  0  0  0  0  0  0  0
   20.8420   19.5716   21.1067 C   0  0  0  0  0  0  0  0  0  0  0  0
   21.8452   19.9939   21.2493 H   0  0  0  0  0  0  0  0  0  0  0  0
   20.7913   19.2810   20.0493 H   0  0  0  0  0  0  0  0  0  0  0  0
   19.7902   20.6798   21.3610 C   0  0  0  0  0  0  0  0  0  0  0  0
   20.0354   21.5313   20.7118 H   0  0  0  0  0  0  0  0  0  0  0  0
   18.7998   20.3353   21.0341 H   0  0  0  0  0  0  0  0  0  0  0  0
   19.4278   17.7206   21.8059 O   0  0  0  0  0  0  0  0  0  0  0  0
   18.8276   18.3640   22.2328 H   0  0  0  0  0  0  0  0  0  0  0  0
  1  2  1  0  0  0  0
  1  3  1  0  0  0  0
  1  4  1  0  0  0  0
  4  5  1  0  0  0  0
  4  6  1  0  0  0  0
  4  7  1  0  0  0  0
  7  8  1  0  0  0  0
  7  9  1  0  0  0  0
  7 10  1  0  0  0  0
 10 11  1  0  0  0  0
 10 12  1  0  0  0  0
 10 13  1  0  0  0  0
 13 14  1  0  0  0  0
 13 15  1  0  0  0  0
 15 16  1  0  0  0  0
 15 17  1  0  0  0  0
  1 18  1  0  0  0  0
 15 18  1  0  0  0  0
 18 19  1  0  0  0  0
 18 20  1  0  0  0  0
 13 21  1  0  0  0  0
 21 22  1  0  0  0  0
M  END
> <VConfSearch Rank>
631

> <Conf_Id>
99

> <Delta U+W>
-3.852

> <U+W>
2.572

> <U>
3.922

> <W>
-1.350

> <W(PB)>
-3.345

> <W(SA)>
1.995

> <Valence>
12.571

> <Coulomb>
-10.581

> <VdW>
1.932

> <VdW6>
-10.483

> <VdW12>
12.415

> <Bond>
0.268

> <Angle>
3.728

> <Pdih>
8.575

> <Idih>
0.000

> <Tether>
0.000

$$$$
VeraChem MOL file


 22 22  0  0  0  0  0  0  0  0999 V2000     
   20.3296   20.3437   24.1435 C   0  0  0  0  0  0  0  0  0  0  0  0
   20.9501   20.5675   25.0222 H   0  0  0  0  0  0  0  0  0  0  0  0
   19.4053   20.9167   24.2963 H   0  0  0  0  0  0  0  0  0  0  0  0
   20.0223   18.8175   24.1522 C   0  0  0  0  0  0  0  0  0  0  0  0
   20.5096   18.3807   25.0348 H   0  0  0  0  0  0  0  0  0  0  0  0
   18.9486   18.6486   24.3091 H   0  0  0  0  0  0  0  0  0  0  0  0
   20.4965   18.0223   22.9090 C   0  0  0  0  0  0  0  0  0  0  0  0
   20.3969   16.9498   23.1251 H   0  0  0  0  0  0  0  0  0  0  0  0
   21.5727   18.1747   22.7603 H   0  0  0  0  0  0  0  0  0  0  0  0
   19.7376   18.3127   21.5844 C   0  0  0  0  0  0  0  0  0  0  0  0
   20.3842   18.0192   20.7473 H   0  0  0  0  0  0  0  0  0  0  0  0
   18.8690   17.6431   21.5284 H   0  0  0  0  0  0  0  0  0  0  0  0
   19.2323   19.7544   21.3312 C   0  0  0  0  0  0  0  0  0  0  0  0
   18.9361   19.8080   20.2737 H   0  0  0  0  0  0  0  0  0  0  0  0
   20.2565   20.8912   21.5697 C   0  0  0  0  0  0  0  0  0  0  0  0
   20.9642   20.9027   20.7308 H   0  0  0  0  0  0  0  0  0  0  0  0
   19.7142   21.8440   21.5048 H   0  0  0  0  0  0  0  0  0  0  0  0
   21.0717   20.8798   22.8926 C   0  0  0  0  0  0  0  0  0  0  0  0
   22.0047   20.3212   22.7478 H   0  0  0  0  0  0  0  0  0  0  0  0
   21.3954   21.9095   23.0966 H   0  0  0  0  0  0  0  0  0  0  0  0
   18.0671   19.9933   22.1049 O   0  0  0  0  0  0  0  0  0  0  0  0
   18.3814   19.9354   23.0295 H   0  0  0  0  0  0  0  0  0  0  0  0
  1  2  1  0  0  0  0
  1  3  1  0  0  0  0
  1  4  1  0  0  0  0
  4  5  1  0  0  0  0
  4  6  1  0  0  0  0
  4  7  1  0  0  0  0
  7  8  1  0  0  0  0
  7  9  1  0  0  0  0
  7 10  1  0  0  0  0
 10 11  1  0  0  0  0
 10 12  1  0  0  0  0
 10 13  1  0  0  0  0
 13 14  1  0  0  0  0
 13 15  1  0  0  0  0
 15 16  1  0  0  0  0
 15 17  1  0  0  0  0
  1 18  1  0  0  0  0
 15 18  1  0  0  0  0
 18 19  1  0  0  0  0
 18 20  1  0  0  0  0
 13 21  1  0  0  0  0
 21 22  1  0  0  0  0
M  END
> <VConfSearch Rank>
632

> <Conf_Id>
98

> <Delta U+W>
0.930

> <U+W>
7.353

> <U>
8.455

> <W>
-1.102

> <W(PB)>
-3.101

> <W(SA)>
2.000

> <Valence>
15.601

> <Coulomb>
-10.573

> <VdW>
3.427

> <VdW6>
-11.360

> <VdW12>
14.787

> <Bond>
0.471

> <Angle>
5.445

> <Pdih>
9.685

> <Idih>
0.000

> <Tether>
0.000

$$$$
VeraChem MOL file


 22 22  0  0  0  0  0  0  0  0999 V2000     
   19.0890   19.6846   24.0948 C   0  0  0  0  0  0  0  0  0  0  0  0
   18.7050   20.6285   23.6870 H   0  0  0  0  0  0  0  0  0  0  0  0
   18.5580   19.5482   25.0467 H   0  0  0  0  0  0  0  0  0  0  0  0
   20.6045   19.8197   24.3904 C   0  0  0  0  0  0  0  0  0  0  0  0
   20.7292   20.6410   25.1092 H   0  0  0  0  0  0  0  0  0  0  0  0
   20.9606   18.9171   24.9053 H   0  0  0  0  0  0  0  0  0  0  0  0
   21.5198   20.1045   23.1674 C   0  0  0  0  0  0  0  0  0  0  0  0
   22.0479   19.1889   22.8712 H   0  0  0  0  0  0  0  0  0  0  0  0
   22.3111   20.7968   23.4857 H   0  0  0  0  0  0  0  0  0  0  0  0
   20.7985   20.7078   21.9331 C   0  0  0  0  0  0  0  0  0  0  0  0
   20.2208   21.5859   22.2475 H   0  0  0  0  0  0  0  0  0  0  0  0
   21.5602   21.1025   21.2473 H   0  0  0  0  0  0  0  0  0  0  0  0
   19.8677   19.7377   21.1480 C   0  0  0  0  0  0  0  0  0  0  0  0
   18.9224   20.2627   20.9482 H   0  0  0  0  0  0  0  0  0  0  0  0
   19.5367   18.3983   21.8527 C   0  0  0  0  0  0  0  0  0  0  0  0
   18.9811   17.7577   21.1557 H   0  0  0  0  0  0  0  0  0  0  0  0
   20.4646   17.8530   22.0634 H   0  0  0  0  0  0  0  0  0  0  0  0
   18.7030   18.5201   23.1527 C   0  0  0  0  0  0  0  0  0  0  0  0
   17.6434   18.6333   22.8861 H   0  0  0  0  0  0  0  0  0  0  0  0
   18.7756   17.5721   23.7030 H   0  0  0  0  0  0  0  0  0  0  0  0
   20.4881   19.4242   19.9062 O   0  0  0  0  0  0  0  0  0  0  0  0
   19.8582   18.8612   19.4098 H   0  0  0  0  0  0  0  0  0  0  0  0
  1  2  1  0  0  0  0
  1  3  1  0  0  0  0
  1  4  1  0  0  0  0
  4  5  1  0  0  0  0
  4  6  1  0  0  0  0
  4  7  1  0  0  0  0
  7  8  1  0  0  0  0
  7  9  1  0  0  0  0
  7 10  1  0  0  0  0
 10 11  1  0  0  0  0
 10 12  1  0  0  0  0
 10 13  1  0  0  0  0
 13 14  1  0  0  0  0
 13 15  1  0  0  0  0
 15 16  1  0  0  0  0
 15 17  1  0  0  0  0
  1 18  1  0  0  0  0
 15 18  1  0  0  0  0
 18 19  1  0  0  0  0
 18 20  1  0  0  0  0
 13 21  1  0  0  0  0
 21 22  1  0  0  0  0
M  END
> <VConfSearch Rank>
633

> <Conf_Id>
141

> <Delta U+W>
0.000

> <U+W>
6.423

> <U>
8.781

> <W>
-2.358

> <W(PB)>
-4.373

> <W(SA)>
2.015

> <Valence>
13.328

> <Coulomb>
-8.387

> <VdW>
3.840

> <VdW6>
-9.744

> <VdW12>
13.584

> <Bond>
0.436

> <Angle>
3.478

> <Pdih>
9.415

> <Idih>
0.000

> <Tether>
0.000

$$$$
VeraChem MOL file


 22 22  0  0  0  0  0  0  0  0999 V2000     
   18.5063   18.6779   22.7201 C   0  0  0  0  0  0  0  0  0  0  0  0
   17.9917   19.5635   23.1170 H   0  0  0  0  0  0  0  0  0  0  0  0
   17.7347   17.9045   22.6048 H   0  0  0  0  0  0  0  0  0  0  0  0
   19.5546   18.1486   23.7285 C   0  0  0  0  0  0  0  0  0  0  0  0
   19.0260   17.7383   24.5997 H   0  0  0  0  0  0  0  0  0  0  0  0
   20.0950   17.3029   23.2818 H   0  0  0  0  0  0  0  0  0  0  0  0
   20.5729   19.1973   24.2322 C   0  0  0  0  0  0  0  0  0  0  0  0
   21.2969   18.6869   24.8820 H   0  0  0  0  0  0  0  0  0  0  0  0
   20.0586   19.9273   24.8721 H   0  0  0  0  0  0  0  0  0  0  0  0
   21.3483   19.9434   23.1190 C   0  0  0  0  0  0  0  0  0  0  0  0
   22.1833   20.4743   23.5948 H   0  0  0  0  0  0  0  0  0  0  0  0
   21.8000   19.2304   22.4172 H   0  0  0  0  0  0  0  0  0  0  0  0
   20.4701   20.9651   22.3624 C   0  0  0  0  0  0  0  0  0  0  0  0
   19.7337   21.3753   23.0683 H   0  0  0  0  0  0  0  0  0  0  0  0
   19.7079   20.3830   21.1501 C   0  0  0  0  0  0  0  0  0  0  0  0
   18.8985   21.0815   20.9013 H   0  0  0  0  0  0  0  0  0  0  0  0
   20.3723   20.3689   20.2758 H   0  0  0  0  0  0  0  0  0  0  0  0
   19.1061   18.9661   21.3240 C   0  0  0  0  0  0  0  0  0  0  0  0
   18.3228   18.8345   20.5651 H   0  0  0  0  0  0  0  0  0  0  0  0
   19.8700   18.2115   21.0919 H   0  0  0  0  0  0  0  0  0  0  0  0
   21.2973   22.0239   21.8959 O   0  0  0  0  0  0  0  0  0  0  0  0
   21.7121   22.4276   22.6868 H   0  0  0  0  0  0  0  0  0  0  0  0
  1  2  1  0  0  0  0
  1  3  1  0  0  0  0
  1  4  1  0  0  0  0
  4  5  1  0  0  0  0
  4  6  1  0  0  0  0
  4  7  1  0  0  0  0
  7  8  1  0  0  0  0
  7  9  1  0  0  0  0
  7 10  1  0  0  0  0
 10 11  1  0  0  0  0
 10 12  1  0  0  0  0
 10 13  1  0  0  0  0
 13 14  1  0  0  0  0
 13 15  1  0  0  0  0
 15 16  1  0  0  0  0
 15 17  1  0  0  0  0
  1 18  1  0  0  0  0
 15 18  1  0  0  0  0
 18 19  1  0  0  0  0
 18 20  1  0  0  0  0
 13 21  1  0  0  0  0
 21 22  1  0  0  0  0
M  END
> <VConfSearch Rank>
634

> <Conf_Id>
144

> <Delta U+W>
-3.291

> <U+W>
3.132

> <U>
5.411

> <W>
-2.279

> <W(PB)>
-4.300

> <W(SA)>
2.021

> <Valence>
11.909

> <Coulomb>
-8.733

> <VdW>
2.236

> <VdW6>
-8.936

> <VdW12>
11.172

> <Bond>
0.223

> <Angle>
2.457

> <Pdih>
9.228

> <Idih>
0.000

> <Tether>
0.000

$$$$
VeraChem MOL file


 22 22  0  0  0  0  0  0  0  0999 V2000     
   20.1936   19.2453   20.9669 C   0  0  0  0  0  0  0  0  0  0  0  0
   20.2906   19.3382   19.8766 H   0  0  0  0  0  0  0  0  0  0  0  0
   20.4246   18.1980   21.2044 H   0  0  0  0  0  0  0  0  0  0  0  0
   18.7344   19.5880   21.3483 C   0  0  0  0  0  0  0  0  0  0  0  0
   18.6203   20.6786   21.4143 H   0  0  0  0  0  0  0  0  0  0  0  0
   18.0704   19.2731   20.5316 H   0  0  0  0  0  0  0  0  0  0  0  0
   18.2264   18.9326   22.6553 C   0  0  0  0  0  0  0  0  0  0  0  0
   17.8815   17.9134   22.4334 H   0  0  0  0  0  0  0  0  0  0  0  0
   17.3360   19.4822   22.9902 H   0  0  0  0  0  0  0  0  0  0  0  0
   19.2398   18.8550   23.8236 C   0  0  0  0  0  0  0  0  0  0  0  0
   18.6728   18.6900   24.7497 H   0  0  0  0  0  0  0  0  0  0  0  0
   19.8685   17.9641   23.6968 H   0  0  0  0  0  0  0  0  0  0  0  0
   20.1427   20.0983   23.9865 C   0  0  0  0  0  0  0  0  0  0  0  0
   19.5792   21.0012   23.7113 H   0  0  0  0  0  0  0  0  0  0  0  0
   21.4302   20.0113   23.1357 C   0  0  0  0  0  0  0  0  0  0  0  0
   22.1328   20.7813   23.4814 H   0  0  0  0  0  0  0  0  0  0  0  0
   21.9238   19.0474   23.3159 H   0  0  0  0  0  0  0  0  0  0  0  0
   21.2258   20.1998   21.6138 C   0  0  0  0  0  0  0  0  0  0  0  0
   20.9375   21.2403   21.4114 H   0  0  0  0  0  0  0  0  0  0  0  0
   22.1951   20.0560   21.1171 H   0  0  0  0  0  0  0  0  0  0  0  0
   20.5274   20.1954   25.3513 O   0  0  0  0  0  0  0  0  0  0  0  0
   21.0228   19.3763   25.5580 H   0  0  0  0  0  0  0  0  0  0  0  0
  1  2  1  0  0  0  0
  1  3  1  0  0  0  0
  1  4  1  0  0  0  0
  4  5  1  0  0  0  0
  4  6  1  0  0  0  0
  4  7  1  0  0  0  0
  7  8  1  0  0  0  0
  7  9  1  0  0  0  0
  7 10  1  0  0  0  0
 10 11  1  0  0  0  0
 10 12  1  0  0  0  0
 10 13  1  0  0  0  0
 13 14  1  0  0  0  0
 13 15  1  0  0  0  0
 15 16  1  0  0  0  0
 15 17  1  0  0  0  0
  1 18  1  0  0  0  0
 15 18  1  0  0  0  0
 18 19  1  0  0  0  0
 18 20  1  0  0  0  0
 13 21  1  0  0  0  0
 21 22  1  0  0  0  0
M  END
> <VConfSearch Rank>
635

> <Conf_Id>
76

> <Delta U+W>
-3.175

> <U+W>
3.248

> <U>
5.336

> <W>
-2.088

> <W(PB)>
-4.098

> <W(SA)>
2.010

> <Valence>
12.390

> <Coulomb>
-9.270

> <VdW>
2.216

> <VdW6>
-8.967

> <VdW12>
11.183

> <Bond>
0.218

> <Angle>
2.426

> <Pdih>
9.745

> <Idih>
0.000

> <Tether>
0.000

$$$$
VeraChem MOL file


 22 22  0  0  0  0  0  0  0  0999 V2000     
   19.3238   20.5073   21.2523 C   0  0  0  0  0  0  0  0  0  0  0  0
   19.6020   20.4350   20.1921 H   0  0  0  0  0  0  0  0  0  0  0  0
   18.4635   21.1896   21.2889 H   0  0  0  0  0  0  0  0  0  0  0  0
   20.5049   21.1480   22.0200 C   0  0  0  0  0  0  0  0  0  0  0  0
   21.4537   20.7973   21.5919 H   0  0  0  0  0  0  0  0  0  0  0  0
   20.4820   22.2307   21.8357 H   0  0  0  0  0  0  0  0  0  0  0  0
   20.5057   20.8982   23.5462 C   0  0  0  0  0  0  0  0  0  0  0  0
   19.4835   20.9150   23.9483 H   0  0  0  0  0  0  0  0  0  0  0  0
   21.0361   21.7307   24.0277 H   0  0  0  0  0  0  0  0  0  0  0  0
   21.2311   19.5862   23.9391 C   0  0  0  0  0  0  0  0  0  0  0  0
   22.2207   19.5652   23.4650 H   0  0  0  0  0  0  0  0  0  0  0  0
   21.4225   19.6021   25.0201 H   0  0  0  0  0  0  0  0  0  0  0  0
   20.4915   18.2706   23.6057 C   0  0  0  0  0  0  0  0  0  0  0  0
   21.2067   17.4529   23.7760 H   0  0  0  0  0  0  0  0  0  0  0  0
   19.9961   18.1454   22.1430 C   0  0  0  0  0  0  0  0  0  0  0  0
   20.8419   18.2590   21.4527 H   0  0  0  0  0  0  0  0  0  0  0  0
   19.6355   17.1183   22.0024 H   0  0  0  0  0  0  0  0  0  0  0  0
   18.8550   19.1186   21.7481 C   0  0  0  0  0  0  0  0  0  0  0  0
   18.2591   18.6587   20.9482 H   0  0  0  0  0  0  0  0  0  0  0  0
   18.1616   19.2474   22.5896 H   0  0  0  0  0  0  0  0  0  0  0  0
   19.4024   18.1023   24.5076 O   0  0  0  0  0  0  0  0  0  0  0  0
   18.9332   17.2893   24.2297 H   0  0  0  0  0  0  0  0  0  0  0  0
  1  2  1  0  0  0  0
  1  3  1  0  0  0  0
  1  4  1  0  0  0  0
  4  5  1  0  0  0  0
  4  6  1  0  0  0  0
  4  7  1  0  0  0  0
  7  8  1  0  0  0  0
  7  9  1  0  0  0  0
  7 10  1  0  0  0  0
 10 11  1  0  0  0  0
 10 12  1  0  0  0  0
 10 13  1  0  0  0  0
 13 14  1  0  0  0  0
 13 15  1  0  0  0  0
 15 16  1  0  0  0  0
 15 17  1  0  0  0  0
  1 18  1  0  0  0  0
 15 18  1  0  0  0  0
 18 19  1  0  0  0  0
 18 20  1  0  0  0  0
 13 21  1  0  0  0  0
 21 22  1  0  0  0  0
M  END
> <VConfSearch Rank>
636

> <Conf_Id>
95

> <Delta U+W>
-2.289

> <U+W>
4.134

> <U>
6.373

> <W>
-2.240

> <W(PB)>
-4.254

> <W(SA)>
2.015

> <Valence>
12.093

> <Coulomb>
-8.058

> <VdW>
2.339

> <VdW6>
-9.683

> <VdW12>
12.022

> <Bond>
0.268

> <Angle>
3.005

> <Pdih>
8.820

> <Idih>
0.000

> <Tether>
0.000

$$$$
VeraChem MOL file


 22 22  0  0  0  0  0  0  0  0999 V2000     
   20.8073   19.9225   24.4348 C   0  0  0  0  0  0  0  0  0  0  0  0
   21.0158   19.1795   25.2165 H   0  0  0  0  0  0  0  0  0  0  0  0
   21.1659   20.8818   24.8322 H   0  0  0  0  0  0  0  0  0  0  0  0
   19.2744   20.0026   24.2396 C   0  0  0  0  0  0  0  0  0  0  0  0
   18.8372   19.0024   24.3619 H   0  0  0  0  0  0  0  0  0  0  0  0
   18.8593   20.6061   25.0583 H   0  0  0  0  0  0  0  0  0  0  0  0
   18.8160   20.6035   22.8905 C   0  0  0  0  0  0  0  0  0  0  0  0
   19.4748   21.4269   22.5826 H   0  0  0  0  0  0  0  0  0  0  0  0
   17.8215   21.0467   23.0358 H   0  0  0  0  0  0  0  0  0  0  0  0
   18.6994   19.5385   21.7709 C   0  0  0  0  0  0  0  0  0  0  0  0
   18.1068   18.6920   22.1411 H   0  0  0  0  0  0  0  0  0  0  0  0
   18.1161   19.9620   20.9430 H   0  0  0  0  0  0  0  0  0  0  0  0
   20.0314   18.9985   21.2019 C   0  0  0  0  0  0  0  0  0  0  0  0
   19.7785   18.1431   20.5589 H   0  0  0  0  0  0  0  0  0  0  0  0
   21.0402   18.4878   22.2611 C   0  0  0  0  0  0  0  0  0  0  0  0
   20.5784   17.6991   22.8687 H   0  0  0  0  0  0  0  0  0  0  0  0
   21.8634   18.0052   21.7187 H   0  0  0  0  0  0  0  0  0  0  0  0
   21.6443   19.5829   23.1784 C   0  0  0  0  0  0  0  0  0  0  0  0
   22.6372   19.2538   23.5134 H   0  0  0  0  0  0  0  0  0  0  0  0
   21.8228   20.4983   22.5990 H   0  0  0  0  0  0  0  0  0  0  0  0
   20.6386   19.9993   20.3903 O   0  0  0  0  0  0  0  0  0  0  0  0
   19.9570   20.2972   19.7539 H   0  0  0  0  0  0  0  0  0  0  0  0
  1  2  1  0  0  0  0
  1  3  1  0  0  0  0
  1  4  1  0  0  0  0
  4  5  1  0  0  0  0
  4  6  1  0  0  0  0
  4  7  1  0  0  0  0
  7  8  1  0  0  0  0
  7  9  1  0  0  0  0
  7 10  1  0  0  0  0
 10 11  1  0  0  0  0
 10 12  1  0  0  0  0
 10 13  1  0  0  0  0
 13 14  1  0  0  0  0
 13 15  1  0  0  0  0
 15 16  1  0  0  0  0
 15 17  1  0  0  0  0
  1 18  1  0  0  0  0
 15 18  1  0  0  0  0
 18 19  1  0  0  0  0
 18 20  1  0  0  0  0
 13 21  1  0  0  0  0
 21 22  1  0  0  0  0
M  END
> <VConfSearch Rank>
637

> <Conf_Id>
41

> <Delta U+W>
-2.114

> <U+W>
4.310

> <U>
6.598

> <W>
-2.289

> <W(PB)>
-4.294

> <W(SA)>
2.005

> <Valence>
12.082

> <Coulomb>
-7.801

> <VdW>
2.317

> <VdW6>
-9.658

> <VdW12>
11.975

> <Bond>
0.267

> <Angle>
3.051

> <Pdih>
8.764

> <Idih>
0.000

> <Tether>
0.000

$$$$
VeraChem MOL file


 22 22  0  0  0  0  0  0  0  0999 V2000     
   19.1624   20.4598   21.6786 C   0  0  0  0  0  0  0  0  0  0  0  0
   18.6858   21.2655   21.1039 H   0  0  0  0  0  0  0  0  0  0  0  0
   18.9829   19.5329   21.1167 H   0  0  0  0  0  0  0  0  0  0  0  0
   18.4813   20.3994   23.0642 C   0  0  0  0  0  0  0  0  0  0  0  0
   18.7241   21.3072   23.6330 H   0  0  0  0  0  0  0  0  0  0  0  0
   17.3924   20.4163   22.9209 H   0  0  0  0  0  0  0  0  0  0  0  0
   18.8391   19.1538   23.9042 C   0  0  0  0  0  0  0  0  0  0  0  0
   18.4070   18.2600   23.4348 H   0  0  0  0  0  0  0  0  0  0  0  0
   18.3379   19.2464   24.8770 H   0  0  0  0  0  0  0  0  0  0  0  0
   20.3566   18.9408   24.1551 C   0  0  0  0  0  0  0  0  0  0  0  0
   20.8055   19.8601   24.5523 H   0  0  0  0  0  0  0  0  0  0  0  0
   20.4597   18.1927   24.9515 H   0  0  0  0  0  0  0  0  0  0  0  0
   21.1805   18.4341   22.9433 C   0  0  0  0  0  0  0  0  0  0  0  0
   22.1229   18.0362   23.3469 H   0  0  0  0  0  0  0  0  0  0  0  0
   21.5787   19.5089   21.8986 C   0  0  0  0  0  0  0  0  0  0  0  0
   22.5916   19.8567   22.1399 H   0  0  0  0  0  0  0  0  0  0  0  0
   21.6645   19.0345   20.9121 H   0  0  0  0  0  0  0  0  0  0  0  0
   20.6749   20.7600   21.7697 C   0  0  0  0  0  0  0  0  0  0  0  0
   20.8679   21.4473   22.6044 H   0  0  0  0  0  0  0  0  0  0  0  0
   20.9802   21.3029   20.8649 H   0  0  0  0  0  0  0  0  0  0  0  0
   20.5032   17.3616   22.2936 O   0  0  0  0  0  0  0  0  0  0  0  0
   21.0848   17.0586   21.5671 H   0  0  0  0  0  0  0  0  0  0  0  0
  1  2  1  0  0  0  0
  1  3  1  0  0  0  0
  1  4  1  0  0  0  0
  4  5  1  0  0  0  0
  4  6  1  0  0  0  0
  4  7  1  0  0  0  0
  7  8  1  0  0  0  0
  7  9  1  0  0  0  0
  7 10  1  0  0  0  0
 10 11  1  0  0  0  0
 10 12  1  0  0  0  0
 10 13  1  0  0  0  0
 13 14  1  0  0  0  0
 13 15  1  0  0  0  0
 15 16  1  0  0  0  0
 15 17  1  0  0  0  0
  1 18  1  0  0  0  0
 15 18  1  0  0  0  0
 18 19  1  0  0  0  0
 18 20  1  0  0  0  0
 13 21  1  0  0  0  0
 21 22  1  0  0  0  0
M  END
> <VConfSearch Rank>
638

> <Conf_Id>
104

> <Delta U+W>
-1.172

> <U+W>
5.252

> <U>
7.482

> <W>
-2.230

> <W(PB)>
-4.220

> <W(SA)>
1.990

> <Valence>
12.309

> <Coulomb>
-7.084

> <VdW>
2.258

> <VdW6>
-9.770

> <VdW12>
12.028

> <Bond>
0.284

> <Angle>
3.491

> <Pdih>
8.535

> <Idih>
0.000

> <Tether>
0.000

$$$$
VeraChem MOL file


 22 22  0  0  0  0  0  0  0  0999 V2000     
   21.3686   19.3594   23.6443 C   0  0  0  0  0  0  0  0  0  0  0  0
   20.8046   19.5870   24.5589 H   0  0  0  0  0  0  0  0  0  0  0  0
   22.4003   19.1626   23.9665 H   0  0  0  0  0  0  0  0  0  0  0  0
   21.3947   20.5783   22.6940 C   0  0  0  0  0  0  0  0  0  0  0  0
   22.1553   21.2856   23.0522 H   0  0  0  0  0  0  0  0  0  0  0  0
   21.7468   20.2601   21.7040 H   0  0  0  0  0  0  0  0  0  0  0  0
   20.0587   21.3516   22.5569 C   0  0  0  0  0  0  0  0  0  0  0  0
   20.0512   21.8633   21.5846 H   0  0  0  0  0  0  0  0  0  0  0  0
   20.0427   22.1533   23.3079 H   0  0  0  0  0  0  0  0  0  0  0  0
   18.7459   20.5373   22.7141 C   0  0  0  0  0  0  0  0  0  0  0  0
   18.5535   20.3693   23.7817 H   0  0  0  0  0  0  0  0  0  0  0  0
   17.9145   21.1646   22.3673 H   0  0  0  0  0  0  0  0  0  0  0  0
   18.6652   19.1815   21.9758 C   0  0  0  0  0  0  0  0  0  0  0  0
   17.5998   18.9384   21.8540 H   0  0  0  0  0  0  0  0  0  0  0  0
   19.2989   18.0226   22.7780 C   0  0  0  0  0  0  0  0  0  0  0  0
   18.8189   17.9737   23.7640 H   0  0  0  0  0  0  0  0  0  0  0  0
   19.0425   17.0797   22.2775 H   0  0  0  0  0  0  0  0  0  0  0  0
   20.8350   18.0733   22.9697 C   0  0  0  0  0  0  0  0  0  0  0  0
   21.1252   17.2134   23.5887 H   0  0  0  0  0  0  0  0  0  0  0  0
   21.3360   17.9237   22.0037 H   0  0  0  0  0  0  0  0  0  0  0  0
   19.2664   19.2753   20.6937 O   0  0  0  0  0  0  0  0  0  0  0  0
   20.1791   19.5734   20.8795 H   0  0  0  0  0  0  0  0  0  0  0  0
  1  2  1  0  0  0  0
  1  3  1  0  0  0  0
  1  4  1  0  0  0  0
  4  5  1  0  0  0  0
  4  6  1  0  0  0  0
  4  7  1  0  0  0  0
  7  8  1  0  0  0  0
  7  9  1  0  0  0  0
  7 10  1  0  0  0  0
 10 11  1  0  0  0  0
 10 12  1  0  0  0  0
 10 13  1  0  0  0  0
 13 14  1  0  0  0  0
 13 15  1  0  0  0  0
 15 16  1  0  0  0  0
 15 17  1  0  0  0  0
  1 18  1  0  0  0  0
 15 18  1  0  0  0  0
 18 19  1  0  0  0  0
 18 20  1  0  0  0  0
 13 21  1  0  0  0  0
 21 22  1  0  0  0  0
M  END
> <VConfSearch Rank>
639

> <Conf_Id>
99

> <Delta U+W>
-3.852

> <U+W>
2.572

> <U>
3.922

> <W>
-1.350

> <W(PB)>
-3.345

> <W(SA)>
1.995

> <Valence>
12.571

> <Coulomb>
-10.581

> <VdW>
1.932

> <VdW6>
-10.483

> <VdW12>
12.415

> <Bond>
0.268

> <Angle>
3.728

> <Pdih>
8.575

> <Idih>
0.000

> <Tether>
0.000

$$$$
VeraChem MOL file


 22 22  0  0  0  0  0  0  0  0999 V2000     
   20.8359   20.2389   21.3418 C   0  0  0  0  0  0  0  0  0  0  0  0
   21.5444   20.9362   20.8738 H   0  0  0  0  0  0  0  0  0  0  0  0
   20.4219   19.6546   20.5092 H   0  0  0  0  0  0  0  0  0  0  0  0
   19.7134   21.0803   22.0170 C   0  0  0  0  0  0  0  0  0  0  0  0
   19.9359   22.1418   21.8410 H   0  0  0  0  0  0  0  0  0  0  0  0
   18.7537   20.9049   21.5127 H   0  0  0  0  0  0  0  0  0  0  0  0
   19.5409   20.8809   23.5445 C   0  0  0  0  0  0  0  0  0  0  0  0
   18.8648   21.6603   23.9215 H   0  0  0  0  0  0  0  0  0  0  0  0
   20.4938   21.0731   24.0530 H   0  0  0  0  0  0  0  0  0  0  0  0
   18.9758   19.5043   23.9923 C   0  0  0  0  0  0  0  0  0  0  0  0
   19.2652   19.3386   25.0381 H   0  0  0  0  0  0  0  0  0  0  0  0
   17.8794   19.5658   24.0010 H   0  0  0  0  0  0  0  0  0  0  0  0
   19.3662   18.2506   23.1713 C   0  0  0  0  0  0  0  0  0  0  0  0
   19.0659   17.3746   23.7639 H   0  0  0  0  0  0  0  0  0  0  0  0
   20.8720   18.0826   22.8514 C   0  0  0  0  0  0  0  0  0  0  0  0
   21.3854   17.7487   23.7622 H   0  0  0  0  0  0  0  0  0  0  0  0
   20.9686   17.2498   22.1421 H   0  0  0  0  0  0  0  0  0  0  0  0
   21.6424   19.3054   22.2804 C   0  0  0  0  0  0  0  0  0  0  0  0
   22.0724   19.8895   23.1035 H   0  0  0  0  0  0  0  0  0  0  0  0
   22.5125   18.9259   21.7274 H   0  0  0  0  0  0  0  0  0  0  0  0
   18.6170   18.2181   21.9667 O   0  0  0  0  0  0  0  0  0  0  0  0
   18.9184   19.0110   21.4795 H   0  0  0  0  0  0  0  0  0  0  0  0
  1  2  1  0  0  0  0
  1  3  1  0  0  0  0
  1  4  1  0  0  0  0
  4  5  1  0  0  0  0
  4  6  1  0  0  0  0
  4  7  1  0  0  0  0
  7  8  1  0  0  0  0
  7  9  1  0  0  0  0
  7 10  1  0  0  0  0
 10 11  1  0  0  0  0
 10 12  1  0  0  0  0
 10 13  1  0  0  0  0
 13 14  1  0  0  0  0
 13 15  1  0  0  0  0
 15 16  1  0  0  0  0
 15 17  1  0  0  0  0
  1 18  1  0  0  0  0
 15 18  1  0  0  0  0
 18 19  1  0  0  0  0
 18 20  1  0  0  0  0
 13 21  1  0  0  0  0
 21 22  1  0  0  0  0
M  END
> <VConfSearch Rank>
640

> <Conf_Id>
98

> <Delta U+W>
0.930

> <U+W>
7.353

> <U>
8.455

> <W>
-1.102

> <W(PB)>
-3.101

> <W(SA)>
2.000

> <Valence>
15.601

> <Coulomb>
-10.573

> <VdW>
3.427

> <VdW6>
-11.360

> <VdW12>
14.787

> <Bond>
0.471

> <Angle>
5.445

> <Pdih>
9.685

> <Idih>
0.000

> <Tether>
0.000

$$$$
VeraChem MOL file


 22 22  0  0  0  0  0  0  0  0999 V2000     
   18.6098   19.8932   23.5762 C   0  0  0  0  0  0  0  0  0  0  0  0
   19.0312   19.2618   24.3690 H   0  0  0  0  0  0  0  0  0  0  0  0
   17.6774   20.2941   23.9964 H   0  0  0  0  0  0  0  0  0  0  0  0
   18.2606   19.0223   22.3427 C   0  0  0  0  0  0  0  0  0  0  0  0
   17.5379   18.2619   22.6688 H   0  0  0  0  0  0  0  0  0  0  0  0
   17.7332   19.6339   21.5981 H   0  0  0  0  0  0  0  0  0  0  0  0
   19.4503   18.2956   21.6563 C   0  0  0  0  0  0  0  0  0  0  0  0
   19.7274   18.8180   20.7315 H   0  0  0  0  0  0  0  0  0  0  0  0
   19.1043   17.3058   21.3290 H   0  0  0  0  0  0  0  0  0  0  0  0
   20.7096   18.1132   22.5445 C   0  0  0  0  0  0  0  0  0  0  0  0
   20.4161   17.6484   23.4939 H   0  0  0  0  0  0  0  0  0  0  0  0
   21.3680   17.3779   22.0626 H   0  0  0  0  0  0  0  0  0  0  0  0
   21.5271   19.4051   22.8388 C   0  0  0  0  0  0  0  0  0  0  0  0
   21.7604   19.4209   23.9132 H   0  0  0  0  0  0  0  0  0  0  0  0
   20.8343   20.7423   22.4752 C   0  0  0  0  0  0  0  0  0  0  0  0
   21.5506   21.5627   22.6130 H   0  0  0  0  0  0  0  0  0  0  0  0
   20.5908   20.7530   21.4060 H   0  0  0  0  0  0  0  0  0  0  0  0
   19.5648   21.0776   23.2972 C   0  0  0  0  0  0  0  0  0  0  0  0
   19.8689   21.5058   24.2620 H   0  0  0  0  0  0  0  0  0  0  0  0
   19.0121   21.8712   22.7761 H   0  0  0  0  0  0  0  0  0  0  0  0
   22.7460   19.3436   22.1069 O   0  0  0  0  0  0  0  0  0  0  0  0
   23.2644   20.1375   22.3540 H   0  0  0  0  0  0  0  0  0  0  0  0
  1  2  1  0  0  0  0
  1  3  1  0  0  0  0
  1  4  1  0  0  0  0
  4  5  1  0  0  0  0
  4  6  1  0  0  0  0
  4  7  1  0  0  0  0
  7  8  1  0  0  0  0
  7  9  1  0  0  0  0
  7 10  1  0  0  0  0
 10 11  1  0  0  0  0
 10 12  1  0  0  0  0
 10 13  1  0  0  0  0
 13 14  1  0  0  0  0
 13 15  1  0  0  0  0
 15 16  1  0  0  0  0
 15 17  1  0  0  0  0
  1 18  1  0  0  0  0
 15 18  1  0  0  0  0
 18 19  1  0  0  0  0
 18 20  1  0  0  0  0
 13 21  1  0  0  0  0
 21 22  1  0  0  0  0
M  END
> <VConfSearch Rank>
641

> <Conf_Id>
141

> <Delta U+W>
0.000

> <U+W>
6.423

> <U>
8.781

> <W>
-2.358

> <W(PB)>
-4.373

> <W(SA)>
2.015

> <Valence>
13.328

> <Coulomb>
-8.387

> <VdW>
3.840

> <VdW6>
-9.744

> <VdW12>
13.584

> <Bond>
0.436

> <Angle>
3.478

> <Pdih>
9.415

> <Idih>
0.000

> <Tether>
0.000

$$$$
VeraChem MOL file


 22 22  0  0  0  0  0  0  0  0999 V2000     
   20.1134   19.7049   24.4003 C   0  0  0  0  0  0  0  0  0  0  0  0
   20.9293   20.4300   24.2771 H   0  0  0  0  0  0  0  0  0  0  0  0
   19.9461   19.6170   25.4825 H   0  0  0  0  0  0  0  0  0  0  0  0
   20.5287   18.3097   23.8744 C   0  0  0  0  0  0  0  0  0  0  0  0
   21.3031   17.9018   24.5383 H   0  0  0  0  0  0  0  0  0  0  0  0
   19.6755   17.6220   23.9534 H   0  0  0  0  0  0  0  0  0  0  0  0
   21.0726   18.2855   22.4274 C   0  0  0  0  0  0  0  0  0  0  0  0
   21.2656   17.2398   22.1516 H   0  0  0  0  0  0  0  0  0  0  0  0
   22.0487   18.7887   22.3960 H   0  0  0  0  0  0  0  0  0  0  0  0
   20.1354   18.9116   21.3658 C   0  0  0  0  0  0  0  0  0  0  0  0
   20.5185   18.6287   20.3766 H   0  0  0  0  0  0  0  0  0  0  0  0
   19.1277   18.4822   21.4374 H   0  0  0  0  0  0  0  0  0  0  0  0
   20.0747   20.4529   21.4584 C   0  0  0  0  0  0  0  0  0  0  0  0
   21.0558   20.8162   21.7964 H   0  0  0  0  0  0  0  0  0  0  0  0
   18.9973   20.9960   22.4246 C   0  0  0  0  0  0  0  0  0  0  0  0
   19.2528   22.0387   22.6532 H   0  0  0  0  0  0  0  0  0  0  0  0
   18.0292   21.0302   21.9071 H   0  0  0  0  0  0  0  0  0  0  0  0
   18.8079   20.2268   23.7559 C   0  0  0  0  0  0  0  0  0  0  0  0
   18.3025   20.8960   24.4656 H   0  0  0  0  0  0  0  0  0  0  0  0
   18.1166   19.3875   23.6002 H   0  0  0  0  0  0  0  0  0  0  0  0
   19.8116   20.9798   20.1637 O   0  0  0  0  0  0  0  0  0  0  0  0
   20.5462   20.6864   19.5849 H   0  0  0  0  0  0  0  0  0  0  0  0
  1  2  1  0  0  0  0
  1  3  1  0  0  0  0
  1  4  1  0  0  0  0
  4  5  1  0  0  0  0
  4  6  1  0  0  0  0
  4  7  1  0  0  0  0
  7  8  1  0  0  0  0
  7  9  1  0  0  0  0
  7 10  1  0  0  0  0
 10 11  1  0  0  0  0
 10 12  1  0  0  0  0
 10 13  1  0  0  0  0
 13 14  1  0  0  0  0
 13 15  1  0  0  0  0
 15 16  1  0  0  0  0
 15 17  1  0  0  0  0
  1 18  1  0  0  0  0
 15 18  1  0  0  0  0
 18 19  1  0  0  0  0
 18 20  1  0  0  0  0
 13 21  1  0  0  0  0
 21 22  1  0  0  0  0
M  END
> <VConfSearch Rank>
642

> <Conf_Id>
144

> <Delta U+W>
-3.291

> <U+W>
3.132

> <U>
5.411

> <W>
-2.279

> <W(PB)>
-4.300

> <W(SA)>
2.021

> <Valence>
11.909

> <Coulomb>
-8.733

> <VdW>
2.236

> <VdW6>
-8.936

> <VdW12>
11.172

> <Bond>
0.223

> <Angle>
2.457

> <Pdih>
9.228

> <Idih>
0.000

> <Tether>
0.000

$$$$
VeraChem MOL file


 22 22  0  0  0  0  0  0  0  0999 V2000     
   21.0695   20.8565   22.8196 C   0  0  0  0  0  0  0  0  0  0  0  0
   21.9461   21.5142   22.7427 H   0  0  0  0  0  0  0  0  0  0  0  0
   20.3571   21.3751   23.4755 H   0  0  0  0  0  0  0  0  0  0  0  0
   21.5276   19.5207   23.4504 C   0  0  0  0  0  0  0  0  0  0  0  0
   21.9618   18.8787   22.6719 H   0  0  0  0  0  0  0  0  0  0  0  0
   22.3469   19.7225   24.1540 H   0  0  0  0  0  0  0  0  0  0  0  0
   20.4269   18.7425   24.2112 C   0  0  0  0  0  0  0  0  0  0  0  0
   20.3450   19.1439   25.2305 H   0  0  0  0  0  0  0  0  0  0  0  0
   20.7607   17.7022   24.3264 H   0  0  0  0  0  0  0  0  0  0  0  0
   19.0151   18.7513   23.5747 C   0  0  0  0  0  0  0  0  0  0  0  0
   18.4447   17.9204   24.0114 H   0  0  0  0  0  0  0  0  0  0  0  0
   18.4887   19.6655   23.8781 H   0  0  0  0  0  0  0  0  0  0  0  0
   18.9944   18.6374   22.0339 C   0  0  0  0  0  0  0  0  0  0  0  0
   19.8224   17.9955   21.7010 H   0  0  0  0  0  0  0  0  0  0  0  0
   19.0923   20.0133   21.3366 C   0  0  0  0  0  0  0  0  0  0  0  0
   18.8199   19.8921   20.2796 H   0  0  0  0  0  0  0  0  0  0  0  0
   18.3467   20.6953   21.7657 H   0  0  0  0  0  0  0  0  0  0  0  0
   20.4859   20.6826   21.3969 C   0  0  0  0  0  0  0  0  0  0  0  0
   21.1920   20.1095   20.7805 H   0  0  0  0  0  0  0  0  0  0  0  0
   20.4120   21.6720   20.9253 H   0  0  0  0  0  0  0  0  0  0  0  0
   17.7649   18.0385   21.6466 O   0  0  0  0  0  0  0  0  0  0  0  0
   17.0553   18.6359   21.9608 H   0  0  0  0  0  0  0  0  0  0  0  0
  1  2  1  0  0  0  0
  1  3  1  0  0  0  0
  1  4  1  0  0  0  0
  4  5  1  0  0  0  0
  4  6  1  0  0  0  0
  4  7  1  0  0  0  0
  7  8  1  0  0  0  0
  7  9  1  0  0  0  0
  7 10  1  0  0  0  0
 10 11  1  0  0  0  0
 10 12  1  0  0  0  0
 10 13  1  0  0  0  0
 13 14  1  0  0  0  0
 13 15  1  0  0  0  0
 15 16  1  0  0  0  0
 15 17  1  0  0  0  0
  1 18  1  0  0  0  0
 15 18  1  0  0  0  0
 18 19  1  0  0  0  0
 18 20  1  0  0  0  0
 13 21  1  0  0  0  0
 21 22  1  0  0  0  0
M  END
> <VConfSearch Rank>
643

> <Conf_Id>
76

> <Delta U+W>
-3.175

> <U+W>
3.248

> <U>
5.336

> <W>
-2.088

> <W(PB)>
-4.098

> <W(SA)>
2.010

> <Valence>
12.390

> <Coulomb>
-9.270

> <VdW>
2.216

> <VdW6>
-8.967

> <VdW12>
11.183

> <Bond>
0.218

> <Angle>
2.426

> <Pdih>
9.745

> <Idih>
0.000

> <Tether>
0.000

$$$$
VeraChem MOL file


 22 22  0  0  0  0  0  0  0  0999 V2000     
   19.8601   20.2069   24.4348 C   0  0  0  0  0  0  0  0  0  0  0  0
   19.7313   21.2532   24.7437 H   0  0  0  0  0  0  0  0  0  0  0  0
   19.7592   19.6108   25.3519 H   0  0  0  0  0  0  0  0  0  0  0  0
   21.2959   20.0386   23.8827 C   0  0  0  0  0  0  0  0  0  0  0  0
   21.5876   20.9460   23.3368 H   0  0  0  0  0  0  0  0  0  0  0  0
   21.9831   19.9767   24.7375 H   0  0  0  0  0  0  0  0  0  0  0  0
   21.5081   18.8030   22.9772 C   0  0  0  0  0  0  0  0  0  0  0  0
   20.9293   17.9436   23.3421 H   0  0  0  0  0  0  0  0  0  0  0  0
   22.5643   18.5091   23.0433 H   0  0  0  0  0  0  0  0  0  0  0  0
   21.1903   19.0891   21.4875 C   0  0  0  0  0  0  0  0  0  0  0  0
   21.7260   19.9934   21.1716 H   0  0  0  0  0  0  0  0  0  0  0  0
   21.6030   18.2741   20.8786 H   0  0  0  0  0  0  0  0  0  0  0  0
   19.6956   19.2441   21.1256 C   0  0  0  0  0  0  0  0  0  0  0  0
   19.6568   19.6184   20.0924 H   0  0  0  0  0  0  0  0  0  0  0  0
   18.9053   20.2467   22.0035 C   0  0  0  0  0  0  0  0  0  0  0  0
   19.3824   21.2344   21.9617 H   0  0  0  0  0  0  0  0  0  0  0  0
   17.9153   20.3769   21.5479 H   0  0  0  0  0  0  0  0  0  0  0  0
   18.7070   19.8158   23.4801 C   0  0  0  0  0  0  0  0  0  0  0  0
   17.7841   20.2736   23.8610 H   0  0  0  0  0  0  0  0  0  0  0  0
   18.5388   18.7323   23.5370 H   0  0  0  0  0  0  0  0  0  0  0  0
   19.0693   17.9655   21.1579 O   0  0  0  0  0  0  0  0  0  0  0  0
   18.1194   18.1156   20.9752 H   0  0  0  0  0  0  0  0  0  0  0  0
  1  2  1  0  0  0  0
  1  3  1  0  0  0  0
  1  4  1  0  0  0  0
  4  5  1  0  0  0  0
  4  6  1  0  0  0  0
  4  7  1  0  0  0  0
  7  8  1  0  0  0  0
  7  9  1  0  0  0  0
  7 10  1  0  0  0  0
 10 11  1  0  0  0  0
 10 12  1  0  0  0  0
 10 13  1  0  0  0  0
 13 14  1  0  0  0  0
 13 15  1  0  0  0  0
 15 16  1  0  0  0  0
 15 17  1  0  0  0  0
  1 18  1  0  0  0  0
 15 18  1  0  0  0  0
 18 19  1  0  0  0  0
 18 20  1  0  0  0  0
 13 21  1  0  0  0  0
 21 22  1  0  0  0  0
M  END
> <VConfSearch Rank>
644

> <Conf_Id>
95

> <Delta U+W>
-2.289

> <U+W>
4.134

> <U>
6.373

> <W>
-2.240

> <W(PB)>
-4.254

> <W(SA)>
2.015

> <Valence>
12.093

> <Coulomb>
-8.058

> <VdW>
2.339

> <VdW6>
-9.683

> <VdW12>
12.022

> <Bond>
0.268

> <Angle>
3.005

> <Pdih>
8.820

> <Idih>
0.000

> <Tether>
0.000

$$$$
VeraChem MOL file


 22 22  0  0  0  0  0  0  0  0999 V2000     
   19.8342   18.2947   21.3543 C   0  0  0  0  0  0  0  0  0  0  0  0
   19.3785   17.2998   21.4516 H   0  0  0  0  0  0  0  0  0  0  0  0
   20.1159   18.3912   20.2969 H   0  0  0  0  0  0  0  0  0  0  0  0
   21.1168   18.3263   22.2194 C   0  0  0  0  0  0  0  0  0  0  0  0
   20.9567   17.7374   23.1327 H   0  0  0  0  0  0  0  0  0  0  0  0
   21.9104   17.8033   21.6686 H   0  0  0  0  0  0  0  0  0  0  0  0
   21.6165   19.7396   22.5990 C   0  0  0  0  0  0  0  0  0  0  0  0
   21.4694   20.4447   21.7695 H   0  0  0  0  0  0  0  0  0  0  0  0
   22.7011   19.6842   22.7634 H   0  0  0  0  0  0  0  0  0  0  0  0
   20.9681   20.2729   23.9015 C   0  0  0  0  0  0  0  0  0  0  0  0
   21.0573   19.5097   24.6854 H   0  0  0  0  0  0  0  0  0  0  0  0
   21.5543   21.1286   24.2606 H   0  0  0  0  0  0  0  0  0  0  0  0
   19.4875   20.7055   23.7987 C   0  0  0  0  0  0  0  0  0  0  0  0
   19.1373   20.8857   24.8253 H   0  0  0  0  0  0  0  0  0  0  0  0
   18.5370   19.6544   23.1725 C   0  0  0  0  0  0  0  0  0  0  0  0
   18.5852   18.7185   23.7436 H   0  0  0  0  0  0  0  0  0  0  0  0
   17.5127   20.0289   23.2965 H   0  0  0  0  0  0  0  0  0  0  0  0
   18.7676   19.3718   21.6650 C   0  0  0  0  0  0  0  0  0  0  0  0
   17.8187   19.0456   21.2184 H   0  0  0  0  0  0  0  0  0  0  0  0
   19.0267   20.3040   21.1459 H   0  0  0  0  0  0  0  0  0  0  0  0
   19.4028   21.9320   23.0794 O   0  0  0  0  0  0  0  0  0  0  0  0
   20.0315   22.5510   23.5034 H   0  0  0  0  0  0  0  0  0  0  0  0
  1  2  1  0  0  0  0
  1  3  1  0  0  0  0
  1  4  1  0  0  0  0
  4  5  1  0  0  0  0
  4  6  1  0  0  0  0
  4  7  1  0  0  0  0
  7  8  1  0  0  0  0
  7  9  1  0  0  0  0
  7 10  1  0  0  0  0
 10 11  1  0  0  0  0
 10 12  1  0  0  0  0
 10 13  1  0  0  0  0
 13 14  1  0  0  0  0
 13 15  1  0  0  0  0
 15 16  1  0  0  0  0
 15 17  1  0  0  0  0
  1 18  1  0  0  0  0
 15 18  1  0  0  0  0
 18 19  1  0  0  0  0
 18 20  1  0  0  0  0
 13 21  1  0  0  0  0
 21 22  1  0  0  0  0
M  END
> <VConfSearch Rank>
645

> <Conf_Id>
41

> <Delta U+W>
-2.114

> <U+W>
4.310

> <U>
6.598

> <W>
-2.289

> <W(PB)>
-4.294

> <W(SA)>
2.005

> <Valence>
12.082

> <Coulomb>
-7.801

> <VdW>
2.317

> <VdW6>
-9.658

> <VdW12>
11.975

> <Bond>
0.267

> <Angle>
3.051

> <Pdih>
8.764

> <Idih>
0.000

> <Tether>
0.000

$$$$
VeraChem MOL file


 22 22  0  0  0  0  0  0  0  0999 V2000     
   21.7128   19.2032   22.5856 C   0  0  0  0  0  0  0  0  0  0  0  0
   22.7152   18.7546   22.6078 H   0  0  0  0  0  0  0  0  0  0  0  0
   21.7572   20.0202   21.8524 H   0  0  0  0  0  0  0  0  0  0  0  0
   21.4077   19.7518   23.9974 C   0  0  0  0  0  0  0  0  0  0  0  0
   21.3060   18.9158   24.7026 H   0  0  0  0  0  0  0  0  0  0  0  0
   22.2735   20.3331   24.3425 H   0  0  0  0  0  0  0  0  0  0  0  0
   20.1560   20.6525   24.0820 C   0  0  0  0  0  0  0  0  0  0  0  0
   20.3441   21.5911   23.5439 H   0  0  0  0  0  0  0  0  0  0  0  0
   20.0158   20.9391   25.1328 H   0  0  0  0  0  0  0  0  0  0  0  0
   18.8404   20.0033   23.5732 C   0  0  0  0  0  0  0  0  0  0  0  0
   18.6911   19.0282   24.0539 H   0  0  0  0  0  0  0  0  0  0  0  0
   18.0071   20.6317   23.9128 H   0  0  0  0  0  0  0  0  0  0  0  0
   18.7054   19.8581   22.0354 C   0  0  0  0  0  0  0  0  0  0  0  0
   17.6381   19.6954   21.8266 H   0  0  0  0  0  0  0  0  0  0  0  0
   19.4565   18.6590   21.4004 C   0  0  0  0  0  0  0  0  0  0  0  0
   18.7464   17.8275   21.3034 H   0  0  0  0  0  0  0  0  0  0  0  0
   19.7389   18.9181   20.3715 H   0  0  0  0  0  0  0  0  0  0  0  0
   20.7079   18.1194   22.1365 C   0  0  0  0  0  0  0  0  0  0  0  0
   20.4007   17.5160   23.0013 H   0  0  0  0  0  0  0  0  0  0  0  0
   21.2214   17.4233   21.4595 H   0  0  0  0  0  0  0  0  0  0  0  0
   19.0926   21.0655   21.3850 O   0  0  0  0  0  0  0  0  0  0  0  0
   18.9493   20.9288   20.4265 H   0  0  0  0  0  0  0  0  0  0  0  0
  1  2  1  0  0  0  0
  1  3  1  0  0  0  0
  1  4  1  0  0  0  0
  4  5  1  0  0  0  0
  4  6  1  0  0  0  0
  4  7  1  0  0  0  0
  7  8  1  0  0  0  0
  7  9  1  0  0  0  0
  7 10  1  0  0  0  0
 10 11  1  0  0  0  0
 10 12  1  0  0  0  0
 10 13  1  0  0  0  0
 13 14  1  0  0  0  0
 13 15  1  0  0  0  0
 15 16  1  0  0  0  0
 15 17  1  0  0  0  0
  1 18  1  0  0  0  0
 15 18  1  0  0  0  0
 18 19  1  0  0  0  0
 18 20  1  0  0  0  0
 13 21  1  0  0  0  0
 21 22  1  0  0  0  0
M  END
> <VConfSearch Rank>
646

> <Conf_Id>
104

> <Delta U+W>
-1.172

> <U+W>
5.252

> <U>
7.482

> <W>
-2.230

> <W(PB)>
-4.220

> <W(SA)>
1.990

> <Valence>
12.309

> <Coulomb>
-7.084

> <VdW>
2.258

> <VdW6>
-9.770

> <VdW12>
12.028

> <Bond>
0.284

> <Angle>
3.491

> <Pdih>
8.535

> <Idih>
0.000

> <Tether>
0.000

$$$$
VeraChem MOL file


 22 22  0  0  0  0  0  0  0  0999 V2000     
   21.3558   19.5135   21.6535 C   0  0  0  0  0  0  0  0  0  0  0  0
   21.3221   18.4176   21.5879 H   0  0  0  0  0  0  0  0  0  0  0  0
   22.2137   19.8266   21.0427 H   0  0  0  0  0  0  0  0  0  0  0  0
   21.6176   19.9719   23.1064 C   0  0  0  0  0  0  0  0  0  0  0  0
   22.6913   19.8718   23.3172 H   0  0  0  0  0  0  0  0  0  0  0  0
   21.4106   21.0467   23.1915 H   0  0  0  0  0  0  0  0  0  0  0  0
   20.8469   19.1961   24.2045 C   0  0  0  0  0  0  0  0  0  0  0  0
   20.7426   19.8481   25.0827 H   0  0  0  0  0  0  0  0  0  0  0  0
   21.4703   18.3555   24.5384 H   0  0  0  0  0  0  0  0  0  0  0  0
   19.4537   18.6239   23.8265 C   0  0  0  0  0  0  0  0  0  0  0  0
   19.5897   17.6990   23.2511 H   0  0  0  0  0  0  0  0  0  0  0  0
   18.9516   18.3152   24.7526 H   0  0  0  0  0  0  0  0  0  0  0  0
   18.4965   19.5562   23.0489 C   0  0  0  0  0  0  0  0  0  0  0  0
   17.4750   19.1819   23.2076 H   0  0  0  0  0  0  0  0  0  0  0  0
   18.7474   19.5371   21.5241 C   0  0  0  0  0  0  0  0  0  0  0  0
   18.6771   18.5006   21.1692 H   0  0  0  0  0  0  0  0  0  0  0  0
   17.9236   20.0732   21.0351 H   0  0  0  0  0  0  0  0  0  0  0  0
   20.0855   20.1451   21.0358 C   0  0  0  0  0  0  0  0  0  0  0  0
   20.1336   20.0202   19.9455 H   0  0  0  0  0  0  0  0  0  0  0  0
   20.0868   21.2298   21.2087 H   0  0  0  0  0  0  0  0  0  0  0  0
   18.5834   20.8839   23.5425 O   0  0  0  0  0  0  0  0  0  0  0  0
   19.5289   21.1134   23.4445 H   0  0  0  0  0  0  0  0  0  0  0  0
  1  2  1  0  0  0  0
  1  3  1  0  0  0  0
  1  4  1  0  0  0  0
  4  5  1  0  0  0  0
  4  6  1  0  0  0  0
  4  7  1  0  0  0  0
  7  8  1  0  0  0  0
  7  9  1  0  0  0  0
  7 10  1  0  0  0  0
 10 11  1  0  0  0  0
 10 12  1  0  0  0  0
 10 13  1  0  0  0  0
 13 14  1  0  0  0  0
 13 15  1  0  0  0  0
 15 16  1  0  0  0  0
 15 17  1  0  0  0  0
  1 18  1  0  0  0  0
 15 18  1  0  0  0  0
 18 19  1  0  0  0  0
 18 20  1  0  0  0  0
 13 21  1  0  0  0  0
 21 22  1  0  0  0  0
M  END
> <VConfSearch Rank>
647

> <Conf_Id>
99

> <Delta U+W>
-3.852

> <U+W>
2.572

> <U>
3.922

> <W>
-1.350

> <W(PB)>
-3.345

> <W(SA)>
1.995

> <Valence>
12.571

> <Coulomb>
-10.581

> <VdW>
1.932

> <VdW6>
-10.483

> <VdW12>
12.415

> <Bond>
0.268

> <Angle>
3.728

> <Pdih>
8.575

> <Idih>
0.000

> <Tether>
0.000

$$$$
VeraChem MOL file


 22 22  0  0  0  0  0  0  0  0999 V2000     
   18.5463   20.0598   23.1516 C   0  0  0  0  0  0  0  0  0  0  0  0
   17.8642   20.7062   23.7207 H   0  0  0  0  0  0  0  0  0  0  0  0
   17.8908   19.3749   22.5972 H   0  0  0  0  0  0  0  0  0  0  0  0
   19.4130   19.2647   24.1717 C   0  0  0  0  0  0  0  0  0  0  0  0
   19.1058   19.5669   25.1824 H   0  0  0  0  0  0  0  0  0  0  0  0
   19.1788   18.1933   24.1132 H   0  0  0  0  0  0  0  0  0  0  0  0
   20.9459   19.4674   24.0637 C   0  0  0  0  0  0  0  0  0  0  0  0
   21.4182   19.0154   24.9465 H   0  0  0  0  0  0  0  0  0  0  0  0
   21.1845   20.5355   24.1400 H   0  0  0  0  0  0  0  0  0  0  0  0
   21.6253   18.8671   22.8016 C   0  0  0  0  0  0  0  0  0  0  0  0
   22.5755   19.3925   22.6409 H   0  0  0  0  0  0  0  0  0  0  0  0
   21.9021   17.8268   23.0184 H   0  0  0  0  0  0  0  0  0  0  0  0
   20.8321   18.8711   21.4715 C   0  0  0  0  0  0  0  0  0  0  0  0
   21.5466   18.6251   20.6729 H   0  0  0  0  0  0  0  0  0  0  0  0
   20.1610   20.2100   21.0779 C   0  0  0  0  0  0  0  0  0  0  0  0
   20.9381   20.8941   20.7133 H   0  0  0  0  0  0  0  0  0  0  0  0
   19.5164   20.0145   20.2106 H   0  0  0  0  0  0  0  0  0  0  0  0
   19.3234   20.9559   22.1536 C   0  0  0  0  0  0  0  0  0  0  0  0
   19.9658   21.6535   22.7050 H   0  0  0  0  0  0  0  0  0  0  0  0
   18.6020   21.5990   21.6313 H   0  0  0  0  0  0  0  0  0  0  0  0
   19.8584   17.8392   21.4948 O   0  0  0  0  0  0  0  0  0  0  0  0
   19.2518   18.1029   22.2154 H   0  0  0  0  0  0  0  0  0  0  0  0
  1  2  1  0  0  0  0
  1  3  1  0  0  0  0
  1  4  1  0  0  0  0
  4  5  1  0  0  0  0
  4  6  1  0  0  0  0
  4  7  1  0  0  0  0
  7  8  1  0  0  0  0
  7  9  1  0  0  0  0
  7 10  1  0  0  0  0
 10 11  1  0  0  0  0
 10 12  1  0  0  0  0
 10 13  1  0  0  0  0
 13 14  1  0  0  0  0
 13 15  1  0  0  0  0
 15 16  1  0  0  0  0
 15 17  1  0  0  0  0
  1 18  1  0  0  0  0
 15 18  1  0  0  0  0
 18 19  1  0  0  0  0
 18 20  1  0  0  0  0
 13 21  1  0  0  0  0
 21 22  1  0  0  0  0
M  END
> <VConfSearch Rank>
648

> <Conf_Id>
98

> <Delta U+W>
0.930

> <U+W>
7.353

> <U>
8.455

> <W>
-1.102

> <W(PB)>
-3.101

> <W(SA)>
2.000

> <Valence>
15.601

> <Coulomb>
-10.573

> <VdW>
3.427

> <VdW6>
-11.360

> <VdW12>
14.787

> <Bond>
0.471

> <Angle>
5.445

> <Pdih>
9.685

> <Idih>
0.000

> <Tether>
0.000

$$$$
VeraChem MOL file


 22 22  0  0  0  0  0  0  0  0999 V2000     
   20.7297   20.2998   24.0181 C   0  0  0  0  0  0  0  0  0  0  0  0
   21.2092   19.3381   24.2420 H   0  0  0  0  0  0  0  0  0  0  0  0
   21.1109   20.9927   24.7805 H   0  0  0  0  0  0  0  0  0  0  0  0
   19.1947   20.1725   24.1906 C   0  0  0  0  0  0  0  0  0  0  0  0
   19.0028   19.8669   25.2282 H   0  0  0  0  0  0  0  0  0  0  0  0
   18.7291   21.1614   24.0808 H   0  0  0  0  0  0  0  0  0  0  0  0
   18.4793   19.1641   23.2493 C   0  0  0  0  0  0  0  0  0  0  0  0
   17.9606   19.7024   22.4455 H   0  0  0  0  0  0  0  0  0  0  0  0
   17.6809   18.6703   23.8198 H   0  0  0  0  0  0  0  0  0  0  0  0
   19.3971   18.0748   22.6339 C   0  0  0  0  0  0  0  0  0  0  0  0
   19.9605   17.5833   23.4368 H   0  0  0  0  0  0  0  0  0  0  0  0
   18.7605   17.2852   22.2124 H   0  0  0  0  0  0  0  0  0  0  0  0
   20.3891   18.5615   21.5371 C   0  0  0  0  0  0  0  0  0  0  0  0
   21.3751   18.1263   21.7548 H   0  0  0  0  0  0  0  0  0  0  0  0
   20.5563   20.0964   21.4084 C   0  0  0  0  0  0  0  0  0  0  0  0
   21.1789   20.3138   20.5308 H   0  0  0  0  0  0  0  0  0  0  0  0
   19.5851   20.5564   21.1901 H   0  0  0  0  0  0  0  0  0  0  0  0
   21.1974   20.7994   22.6310 C   0  0  0  0  0  0  0  0  0  0  0  0
   22.2884   20.6831   22.5761 H   0  0  0  0  0  0  0  0  0  0  0  0
   21.0051   21.8781   22.5528 H   0  0  0  0  0  0  0  0  0  0  0  0
   19.9421   18.0743   20.2770 O   0  0  0  0  0  0  0  0  0  0  0  0
   20.6123   18.3449   19.6154 H   0  0  0  0  0  0  0  0  0  0  0  0
  1  2  1  0  0  0  0
  1  3  1  0  0  0  0
  1  4  1  0  0  0  0
  4  5  1  0  0  0  0
  4  6  1  0  0  0  0
  4  7  1  0  0  0  0
  7  8  1  0  0  0  0
  7  9  1  0  0  0  0
  7 10  1  0  0  0  0
 10 11  1  0  0  0  0
 10 12  1  0  0  0  0
 10 13  1  0  0  0  0
 13 14  1  0  0  0  0
 13 15  1  0  0  0  0
 15 16  1  0  0  0  0
 15 17  1  0  0  0  0
  1 18  1  0  0  0  0
 15 18  1  0  0  0  0
 18 19  1  0  0  0  0
 18 20  1  0  0  0  0
 13 21  1  0  0  0  0
 21 22  1  0  0  0  0
M  END
> <VConfSearch Rank>
649

> <Conf_Id>
141

> <Delta U+W>
0.000

> <U+W>
6.423

> <U>
8.781

> <W>
-2.358

> <W(PB)>
-4.373

> <W(SA)>
2.015

> <Valence>
13.328

> <Coulomb>
-8.387

> <VdW>
3.840

> <VdW6>
-9.744

> <VdW12>
13.584

> <Bond>
0.436

> <Angle>
3.478

> <Pdih>
9.415

> <Idih>
0.000

> <Tether>
0.000

$$$$
VeraChem MOL file


 22 22  0  0  0  0  0  0  0  0999 V2000     
   19.3097   20.9820   21.8086 C   0  0  0  0  0  0  0  0  0  0  0  0
   20.0241   20.7991   20.9945 H   0  0  0  0  0  0  0  0  0  0  0  0
   18.6838   21.8230   21.4801 H   0  0  0  0  0  0  0  0  0  0  0  0
   20.0422   21.4183   23.1004 C   0  0  0  0  0  0  0  0  0  0  0  0
   20.4705   22.4171   22.9394 H   0  0  0  0  0  0  0  0  0  0  0  0
   19.3111   21.5345   23.9121 H   0  0  0  0  0  0  0  0  0  0  0  0
   21.1768   20.4765   23.5651 C   0  0  0  0  0  0  0  0  0  0  0  0
   21.5678   20.8561   24.5190 H   0  0  0  0  0  0  0  0  0  0  0  0
   22.0128   20.5340   22.8547 H   0  0  0  0  0  0  0  0  0  0  0  0
   20.7622   18.9969   23.7547 C   0  0  0  0  0  0  0  0  0  0  0  0
   21.5722   18.4920   24.2973 H   0  0  0  0  0  0  0  0  0  0  0  0
   19.8733   18.9227   24.3946 H   0  0  0  0  0  0  0  0  0  0  0  0
   20.5258   18.2670   22.4134 C   0  0  0  0  0  0  0  0  0  0  0  0
   21.2135   18.6887   21.6663 H   0  0  0  0  0  0  0  0  0  0  0  0
   19.0850   18.3815   21.8655 C   0  0  0  0  0  0  0  0  0  0  0  0
   19.1144   18.1214   20.7995 H   0  0  0  0  0  0  0  0  0  0  0  0
   18.4530   17.6210   22.3433 H   0  0  0  0  0  0  0  0  0  0  0  0
   18.3900   19.7571   22.0228 C   0  0  0  0  0  0  0  0  0  0  0  0
   17.5613   19.8030   21.3031 H   0  0  0  0  0  0  0  0  0  0  0  0
   17.9219   19.8210   23.0145 H   0  0  0  0  0  0  0  0  0  0  0  0
   20.8242   16.8868   22.5838 O   0  0  0  0  0  0  0  0  0  0  0  0
   21.7636   16.8328   22.8579 H   0  0  0  0  0  0  0  0  0  0  0  0
  1  2  1  0  0  0  0
  1  3  1  0  0  0  0
  1  4  1  0  0  0  0
  4  5  1  0  0  0  0
  4  6  1  0  0  0  0
  4  7  1  0  0  0  0
  7  8  1  0  0  0  0
  7  9  1  0  0  0  0
  7 10  1  0  0  0  0
 10 11  1  0  0  0  0
 10 12  1  0  0  0  0
 10 13  1  0  0  0  0
 13 14  1  0  0  0  0
 13 15  1  0  0  0  0
 15 16  1  0  0  0  0
 15 17  1  0  0  0  0
  1 18  1  0  0  0  0
 15 18  1  0  0  0  0
 18 19  1  0  0  0  0
 18 20  1  0  0  0  0
 13 21  1  0  0  0  0
 21 22  1  0  0  0  0
M  END
> <VConfSearch Rank>
650

> <Conf_Id>
144

> <Delta U+W>
-3.291

> <U+W>
3.132

> <U>
5.411

> <W>
-2.279

> <W(PB)>
-4.300

> <W(SA)>
2.021

> <Valence>
11.909

> <Coulomb>
-8.733

> <VdW>
2.236

> <VdW6>
-8.936

> <VdW12>
11.172

> <Bond>
0.223

> <Angle>
2.457

> <Pdih>
9.228

> <Idih>
0.000

> <Tether>
0.000

$$$$
VeraChem MOL file


 22 22  0  0  0  0  0  0  0  0999 V2000     
   18.6509   20.6947   22.4576 C   0  0  0  0  0  0  0  0  0  0  0  0
   18.0100   21.5202   22.1190 H   0  0  0  0  0  0  0  0  0  0  0  0
   18.1028   20.1978   23.2696 H   0  0  0  0  0  0  0  0  0  0  0  0
   19.9761   21.2998   22.9768 C   0  0  0  0  0  0  0  0  0  0  0  0
   20.6464   21.4943   22.1284 H   0  0  0  0  0  0  0  0  0  0  0  0
   19.7685   22.2846   23.4175 H   0  0  0  0  0  0  0  0  0  0  0  0
   20.7149   20.4490   24.0380 C   0  0  0  0  0  0  0  0  0  0  0  0
   20.2843   20.6581   25.0268 H   0  0  0  0  0  0  0  0  0  0  0  0
   21.7570   20.7933   24.0878 H   0  0  0  0  0  0  0  0  0  0  0  0
   20.7005   18.9158   23.8204 C   0  0  0  0  0  0  0  0  0  0  0  0
   21.5097   18.4833   24.4243 H   0  0  0  0  0  0  0  0  0  0  0  0
   19.7699   18.5024   24.2300 H   0  0  0  0  0  0  0  0  0  0  0  0
   20.8565   18.4649   22.3507 C   0  0  0  0  0  0  0  0  0  0  0  0
   21.5209   19.1619   21.8203 H   0  0  0  0  0  0  0  0  0  0  0  0
   19.5021   18.3754   21.6114 C   0  0  0  0  0  0  0  0  0  0  0  0
   19.6479   17.8177   20.6766 H   0  0  0  0  0  0  0  0  0  0  0  0
   18.7965   17.7847   22.2100 H   0  0  0  0  0  0  0  0  0  0  0  0
   18.8543   19.7357   21.2601 C   0  0  0  0  0  0  0  0  0  0  0  0
   19.4557   20.2370   20.4894 H   0  0  0  0  0  0  0  0  0  0  0  0
   17.8772   19.5411   20.7973 H   0  0  0  0  0  0  0  0  0  0  0  0
   21.4456   17.1714   22.3403 O   0  0  0  0  0  0  0  0  0  0  0  0
   20.8283   16.5825   22.8212 H   0  0  0  0  0  0  0  0  0  0  0  0
  1  2  1  0  0  0  0
  1  3  1  0  0  0  0
  1  4  1  0  0  0  0
  4  5  1  0  0  0  0
  4  6  1  0  0  0  0
  4  7  1  0  0  0  0
  7  8  1  0  0  0  0
  7  9  1  0  0  0  0
  7 10  1  0  0  0  0
 10 11  1  0  0  0  0
 10 12  1  0  0  0  0
 10 13  1  0  0  0  0
 13 14  1  0  0  0  0
 13 15  1  0  0  0  0
 15 16  1  0  0  0  0
 15 17  1  0  0  0  0
  1 18  1  0  0  0  0
 15 18  1  0  0  0  0
 18 19  1  0  0  0  0
 18 20  1  0  0  0  0
 13 21  1  0  0  0  0
 21 22  1  0  0  0  0
M  END
> <VConfSearch Rank>
651

> <Conf_Id>
76

> <Delta U+W>
-3.175

> <U+W>
3.248

> <U>
5.336

> <W>
-2.088

> <W(PB)>
-4.098

> <W(SA)>
2.010

> <Valence>
12.390

> <Coulomb>
-9.270

> <VdW>
2.216

> <VdW6>
-8.967

> <VdW12>
11.183

> <Bond>
0.218

> <Angle>
2.426

> <Pdih>
9.745

> <Idih>
0.000

> <Tether>
0.000

$$$$
VeraChem MOL file


 22 22  0  0  0  0  0  0  0  0999 V2000     
   19.4431   17.7966   22.8446 C   0  0  0  0  0  0  0  0  0  0  0  0
   19.5221   16.9945   22.0982 H   0  0  0  0  0  0  0  0  0  0  0  0
   18.9957   17.3328   23.7343 H   0  0  0  0  0  0  0  0  0  0  0  0
   18.4738   18.8721   22.2986 C   0  0  0  0  0  0  0  0  0  0  0  0
   18.6079   18.9692   21.2127 H   0  0  0  0  0  0  0  0  0  0  0  0
   17.4475   18.5052   22.4359 H   0  0  0  0  0  0  0  0  0  0  0  0
   18.6019   20.2645   22.9593 C   0  0  0  0  0  0  0  0  0  0  0  0
   18.8104   20.1725   24.0340 H   0  0  0  0  0  0  0  0  0  0  0  0
   17.6303   20.7704   22.8797 H   0  0  0  0  0  0  0  0  0  0  0  0
   19.6593   21.1619   22.2676 C   0  0  0  0  0  0  0  0  0  0  0  0
   19.4684   21.1769   21.1869 H   0  0  0  0  0  0  0  0  0  0  0  0
   19.5164   22.1964   22.6065 H   0  0  0  0  0  0  0  0  0  0  0  0
   21.1386   20.7825   22.5063 C   0  0  0  0  0  0  0  0  0  0  0  0
   21.7376   21.3903   21.8129 H   0  0  0  0  0  0  0  0  0  0  0  0
   21.4909   19.2987   22.2330 C   0  0  0  0  0  0  0  0  0  0  0  0
   21.2217   19.0363   21.2017 H   0  0  0  0  0  0  0  0  0  0  0  0
   22.5830   19.2024   22.2873 H   0  0  0  0  0  0  0  0  0  0  0  0
   20.8643   18.2799   23.2201 C   0  0  0  0  0  0  0  0  0  0  0  0
   21.5158   17.3976   23.2785 H   0  0  0  0  0  0  0  0  0  0  0  0
   20.8502   18.6984   24.2351 H   0  0  0  0  0  0  0  0  0  0  0  0
   21.5054   21.1359   23.8362 O   0  0  0  0  0  0  0  0  0  0  0  0
   22.4278   20.8327   23.9609 H   0  0  0  0  0  0  0  0  0  0  0  0
  1  2  1  0  0  0  0
  1  3  1  0  0  0  0
  1  4  1  0  0  0  0
  4  5  1  0  0  0  0
  4  6  1  0  0  0  0
  4  7  1  0  0  0  0
  7  8  1  0  0  0  0
  7  9  1  0  0  0  0
  7 10  1  0  0  0  0
 10 11  1  0  0  0  0
 10 12  1  0  0  0  0
 10 13  1  0  0  0  0
 13 14  1  0  0  0  0
 13 15  1  0  0  0  0
 15 16  1  0  0  0  0
 15 17  1  0  0  0  0
  1 18  1  0  0  0  0
 15 18  1  0  0  0  0
 18 19  1  0  0  0  0
 18 20  1  0  0  0  0
 13 21  1  0  0  0  0
 21 22  1  0  0  0  0
M  END
> <VConfSearch Rank>
652

> <Conf_Id>
95

> <Delta U+W>
-2.289

> <U+W>
4.134

> <U>
6.373

> <W>
-2.240

> <W(PB)>
-4.254

> <W(SA)>
2.015

> <Valence>
12.093

> <Coulomb>
-8.058

> <VdW>
2.339

> <VdW6>
-9.683

> <VdW12>
12.022

> <Bond>
0.268

> <Angle>
3.005

> <Pdih>
8.820

> <Idih>
0.000

> <Tether>
0.000

$$$$
VeraChem MOL file


 22 22  0  0  0  0  0  0  0  0999 V2000     
   19.4084   19.9554   24.4793 C   0  0  0  0  0  0  0  0  0  0  0  0
   19.9138   19.7364   25.4298 H   0  0  0  0  0  0  0  0  0  0  0  0
   18.4631   20.4449   24.7504 H   0  0  0  0  0  0  0  0  0  0  0  0
   19.0941   18.6126   23.7777 C   0  0  0  0  0  0  0  0  0  0  0  0
   19.9094   17.9013   23.9668 H   0  0  0  0  0  0  0  0  0  0  0  0
   18.2078   18.1775   24.2592 H   0  0  0  0  0  0  0  0  0  0  0  0
   18.8405   18.7122   22.2554 C   0  0  0  0  0  0  0  0  0  0  0  0
   18.2882   19.6290   22.0079 H   0  0  0  0  0  0  0  0  0  0  0  0
   18.1904   17.8764   21.9634 H   0  0  0  0  0  0  0  0  0  0  0  0
   20.1444   18.6089   21.4244 C   0  0  0  0  0  0  0  0  0  0  0  0
   20.7127   17.7304   21.7561 H   0  0  0  0  0  0  0  0  0  0  0  0
   19.8790   18.4060   20.3788 H   0  0  0  0  0  0  0  0  0  0  0  0
   21.0753   19.8425   21.4600 C   0  0  0  0  0  0  0  0  0  0  0  0
   22.0163   19.5444   20.9754 H   0  0  0  0  0  0  0  0  0  0  0  0
   21.4365   20.3533   22.8774 C   0  0  0  0  0  0  0  0  0  0  0  0
   21.9061   19.5486   23.4573 H   0  0  0  0  0  0  0  0  0  0  0  0
   22.2073   21.1254   22.7571 H   0  0  0  0  0  0  0  0  0  0  0  0
   20.2585   20.9691   23.6766 C   0  0  0  0  0  0  0  0  0  0  0  0
   20.6600   21.7073   24.3838 H   0  0  0  0  0  0  0  0  0  0  0  0
   19.6070   21.5393   23.0013 H   0  0  0  0  0  0  0  0  0  0  0  0
   20.4955   20.8940   20.6939 O   0  0  0  0  0  0  0  0  0  0  0  0
   20.2722   20.5150   19.8194 H   0  0  0  0  0  0  0  0  0  0  0  0
  1  2  1  0  0  0  0
  1  3  1  0  0  0  0
  1  4  1  0  0  0  0
  4  5  1  0  0  0  0
  4  6  1  0  0  0  0
  4  7  1  0  0  0  0
  7  8  1  0  0  0  0
  7  9  1  0  0  0  0
  7 10  1  0  0  0  0
 10 11  1  0  0  0  0
 10 12  1  0  0  0  0
 10 13  1  0  0  0  0
 13 14  1  0  0  0  0
 13 15  1  0  0  0  0
 15 16  1  0  0  0  0
 15 17  1  0  0  0  0
  1 18  1  0  0  0  0
 15 18  1  0  0  0  0
 18 19  1  0  0  0  0
 18 20  1  0  0  0  0
 13 21  1  0  0  0  0
 21 22  1  0  0  0  0
M  END
> <VConfSearch Rank>
653

> <Conf_Id>
41

> <Delta U+W>
-2.114

> <U+W>
4.310

> <U>
6.598

> <W>
-2.289

> <W(PB)>
-4.294

> <W(SA)>
2.005

> <Valence>
12.082

> <Coulomb>
-7.801

> <VdW>
2.317

> <VdW6>
-9.658

> <VdW12>
11.975

> <Bond>
0.267

> <Angle>
3.051

> <Pdih>
8.764

> <Idih>
0.000

> <Tether>
0.000

$$$$
VeraChem MOL file


 22 22  0  0  0  0  0  0  0  0999 V2000     
   20.0750   20.5268   21.3740 C   0  0  0  0  0  0  0  0  0  0  0  0
   19.8591   21.2835   20.6076 H   0  0  0  0  0  0  0  0  0  0  0  0
   21.1189   20.2211   21.2196 H   0  0  0  0  0  0  0  0  0  0  0  0
   19.1174   19.3357   21.1468 C   0  0  0  0  0  0  0  0  0  0  0  0
   18.0867   19.6456   21.3664 H   0  0  0  0  0  0  0  0  0  0  0  0
   19.1320   19.0723   20.0805 H   0  0  0  0  0  0  0  0  0  0  0  0
   19.4596   18.0695   21.9622 C   0  0  0  0  0  0  0  0  0  0  0  0
   20.3990   17.6386   21.5912 H   0  0  0  0  0  0  0  0  0  0  0  0
   18.6884   17.3153   21.7555 H   0  0  0  0  0  0  0  0  0  0  0  0
   19.5407   18.2762   23.4991 C   0  0  0  0  0  0  0  0  0  0  0  0
   18.6337   18.7776   23.8601 H   0  0  0  0  0  0  0  0  0  0  0  0
   19.5374   17.2840   23.9682 H   0  0  0  0  0  0  0  0  0  0  0  0
   20.7966   19.0226   24.0183 C   0  0  0  0  0  0  0  0  0  0  0  0
   20.8675   18.8095   25.0948 H   0  0  0  0  0  0  0  0  0  0  0  0
   20.7689   20.5675   23.8857 C   0  0  0  0  0  0  0  0  0  0  0  0
   20.4189   20.9831   24.8395 H   0  0  0  0  0  0  0  0  0  0  0  0
   21.7971   20.9352   23.7713 H   0  0  0  0  0  0  0  0  0  0  0  0
   19.8961   21.1800   22.7623 C   0  0  0  0  0  0  0  0  0  0  0  0
   18.8375   21.1495   23.0539 H   0  0  0  0  0  0  0  0  0  0  0  0
   20.1492   22.2461   22.6841 H   0  0  0  0  0  0  0  0  0  0  0  0
   21.9730   18.5090   23.3991 O   0  0  0  0  0  0  0  0  0  0  0  0
   22.7312   18.9868   23.7925 H   0  0  0  0  0  0  0  0  0  0  0  0
  1  2  1  0  0  0  0
  1  3  1  0  0  0  0
  1  4  1  0  0  0  0
  4  5  1  0  0  0  0
  4  6  1  0  0  0  0
  4  7  1  0  0  0  0
  7  8  1  0  0  0  0
  7  9  1  0  0  0  0
  7 10  1  0  0  0  0
 10 11  1  0  0  0  0
 10 12  1  0  0  0  0
 10 13  1  0  0  0  0
 13 14  1  0  0  0  0
 13 15  1  0  0  0  0
 15 16  1  0  0  0  0
 15 17  1  0  0  0  0
  1 18  1  0  0  0  0
 15 18  1  0  0  0  0
 18 19  1  0  0  0  0
 18 20  1  0  0  0  0
 13 21  1  0  0  0  0
 21 22  1  0  0  0  0
M  END
> <VConfSearch Rank>
654

> <Conf_Id>
104

> <Delta U+W>
-1.172

> <U+W>
5.252

> <U>
7.482

> <W>
-2.230

> <W(PB)>
-4.220

> <W(SA)>
1.990

> <Valence>
12.309

> <Coulomb>
-7.084

> <VdW>
2.258

> <VdW6>
-9.770

> <VdW12>
12.028

> <Bond>
0.284

> <Angle>
3.491

> <Pdih>
8.535

> <Idih>
0.000

> <Tether>
0.000

$$$$
VeraChem MOL file


 22 22  0  0  0  0  0  0  0  0999 V2000     
   18.6737   18.7641   22.9775 C   0  0  0  0  0  0  0  0  0  0  0  0
   18.7417   18.9287   24.0614 H   0  0  0  0  0  0  0  0  0  0  0  0
   17.7709   18.1582   22.8200 H   0  0  0  0  0  0  0  0  0  0  0  0
   19.8842   17.9506   22.4654 C   0  0  0  0  0  0  0  0  0  0  0  0
   19.7142   16.8891   22.6922 H   0  0  0  0  0  0  0  0  0  0  0  0
   19.9210   18.0043   21.3694 H   0  0  0  0  0  0  0  0  0  0  0  0
   21.2593   18.3461   23.0609 C   0  0  0  0  0  0  0  0  0  0  0  0
   22.0431   18.0602   22.3458 H   0  0  0  0  0  0  0  0  0  0  0  0
   21.4411   17.7315   23.9531 H   0  0  0  0  0  0  0  0  0  0  0  0
   21.4579   19.8314   23.4677 C   0  0  0  0  0  0  0  0  0  0  0  0
   20.9739   20.0057   24.4374 H   0  0  0  0  0  0  0  0  0  0  0  0
   22.5287   19.9931   23.6475 H   0  0  0  0  0  0  0  0  0  0  0  0
   20.9707   20.9065   22.4693 C   0  0  0  0  0  0  0  0  0  0  0  0
   21.5169   21.8336   22.6948 H   0  0  0  0  0  0  0  0  0  0  0  0
   19.4662   21.2267   22.6190 C   0  0  0  0  0  0  0  0  0  0  0  0
   19.2717   21.5237   23.6578 H   0  0  0  0  0  0  0  0  0  0  0  0
   19.2431   22.1135   22.0115 H   0  0  0  0  0  0  0  0  0  0  0  0
   18.4773   20.1018   22.2251 C   0  0  0  0  0  0  0  0  0  0  0  0
   17.4595   20.4636   22.4249 H   0  0  0  0  0  0  0  0  0  0  0  0
   18.5216   19.9296   21.1412 H   0  0  0  0  0  0  0  0  0  0  0  0
   21.2572   20.5148   21.1356 O   0  0  0  0  0  0  0  0  0  0  0  0
   20.8097   19.6507   21.0394 H   0  0  0  0  0  0  0  0  0  0  0  0
  1  2  1  0  0  0  0
  1  3  1  0  0  0  0
  1  4  1  0  0  0  0
  4  5  1  0  0  0  0
  4  6  1  0  0  0  0
  4  7  1  0  0  0  0
  7  8  1  0  0  0  0
  7  9  1  0  0  0  0
  7 10  1  0  0  0  0
 10 11  1  0  0  0  0
 10 12  1  0  0  0  0
 10 13  1  0  0  0  0
 13 14  1  0  0  0  0
 13 15  1  0  0  0  0
 15 16  1  0  0  0  0
 15 17  1  0  0  0  0
  1 18  1  0  0  0  0
 15 18  1  0  0  0  0
 18 19  1  0  0  0  0
 18 20  1  0  0  0  0
 13 21  1  0  0  0  0
 21 22  1  0  0  0  0
M  END
> <VConfSearch Rank>
655

> <Conf_Id>
99

> <Delta U+W>
-3.852

> <U+W>
2.572

> <U>
3.922

> <W>
-1.350

> <W(PB)>
-3.345

> <W(SA)>
1.995

> <Valence>
12.571

> <Coulomb>
-10.581

> <VdW>
1.932

> <VdW6>
-10.483

> <VdW12>
12.415

> <Bond>
0.268

> <Angle>
3.728

> <Pdih>
8.575

> <Idih>
0.000

> <Tether>
0.000

$$$$
VeraChem MOL file


 22 22  0  0  0  0  0  0  0  0999 V2000     
   19.7939   21.2309   22.8057 C   0  0  0  0  0  0  0  0  0  0  0  0
   20.0690   22.2783   22.6200 H   0  0  0  0  0  0  0  0  0  0  0  0
   18.8346   21.2803   23.3380 H   0  0  0  0  0  0  0  0  0  0  0  0
   20.8852   20.6062   23.7236 C   0  0  0  0  0  0  0  0  0  0  0  0
   21.6326   21.3833   23.9353 H   0  0  0  0  0  0  0  0  0  0  0  0
   20.4564   20.3518   24.7021 H   0  0  0  0  0  0  0  0  0  0  0  0
   21.6329   19.3759   23.1490 C   0  0  0  0  0  0  0  0  0  0  0  0
   22.4921   19.1585   23.7981 H   0  0  0  0  0  0  0  0  0  0  0  0
   22.0778   19.6325   22.1796 H   0  0  0  0  0  0  0  0  0  0  0  0
   20.7973   18.0727   23.0142 C   0  0  0  0  0  0  0  0  0  0  0  0
   21.2808   17.4312   22.2663 H   0  0  0  0  0  0  0  0  0  0  0  0
   20.8652   17.5179   23.9595 H   0  0  0  0  0  0  0  0  0  0  0  0
   19.2964   18.1994   22.6545 C   0  0  0  0  0  0  0  0  0  0  0  0
   18.9464   17.1925   22.3855 H   0  0  0  0  0  0  0  0  0  0  0  0
   18.9533   19.1280   21.4637 C   0  0  0  0  0  0  0  0  0  0  0  0
   19.2185   18.6112   20.5325 H   0  0  0  0  0  0  0  0  0  0  0  0
   17.8610   19.2375   21.4337 H   0  0  0  0  0  0  0  0  0  0  0  0
   19.5895   20.5454   21.4305 C   0  0  0  0  0  0  0  0  0  0  0  0
   20.5428   20.5108   20.8887 H   0  0  0  0  0  0  0  0  0  0  0  0
   18.9455   21.1884   20.8152 H   0  0  0  0  0  0  0  0  0  0  0  0
   18.5647   18.6048   23.8006 O   0  0  0  0  0  0  0  0  0  0  0  0
   18.9103   19.4984   23.9978 H   0  0  0  0  0  0  0  0  0  0  0  0
  1  2  1  0  0  0  0
  1  3  1  0  0  0  0
  1  4  1  0  0  0  0
  4  5  1  0  0  0  0
  4  6  1  0  0  0  0
  4  7  1  0  0  0  0
  7  8  1  0  0  0  0
  7  9  1  0  0  0  0
  7 10  1  0  0  0  0
 10 11  1  0  0  0  0
 10 12  1  0  0  0  0
 10 13  1  0  0  0  0
 13 14  1  0  0  0  0
 13 15  1  0  0  0  0
 15 16  1  0  0  0  0
 15 17  1  0  0  0  0
  1 18  1  0  0  0  0
 15 18  1  0  0  0  0
 18 19  1  0  0  0  0
 18 20  1  0  0  0  0
 13 21  1  0  0  0  0
 21 22  1  0  0  0  0
M  END
> <VConfSearch Rank>
656

> <Conf_Id>
98

> <Delta U+W>
0.930

> <U+W>
7.353

> <U>
8.455

> <W>
-1.102

> <W(PB)>
-3.101

> <W(SA)>
2.000

> <Valence>
15.601

> <Coulomb>
-10.573

> <VdW>
3.427

> <VdW6>
-11.360

> <VdW12>
14.787

> <Bond>
0.471

> <Angle>
5.445

> <Pdih>
9.685

> <Idih>
0.000

> <Tether>
0.000

$$$$
VeraChem MOL file


 22 22  0  0  0  0  0  0  0  0999 V2000     
   21.6055   20.0049   23.1078 C   0  0  0  0  0  0  0  0  0  0  0  0
   21.3465   21.0161   22.7685 H   0  0  0  0  0  0  0  0  0  0  0  0
   22.6239   20.0913   23.5103 H   0  0  0  0  0  0  0  0  0  0  0  0
   21.6340   19.0374   21.8973 C   0  0  0  0  0  0  0  0  0  0  0  0
   22.3795   19.4192   21.1864 H   0  0  0  0  0  0  0  0  0  0  0  0
   22.0062   18.0556   22.2199 H   0  0  0  0  0  0  0  0  0  0  0  0
   20.2921   18.8499   21.1364 C   0  0  0  0  0  0  0  0  0  0  0  0
   19.8370   17.8885   21.4075 H   0  0  0  0  0  0  0  0  0  0  0  0
   20.5154   18.7647   20.0642 H   0  0  0  0  0  0  0  0  0  0  0  0
   19.2570   19.9879   21.3397 C   0  0  0  0  0  0  0  0  0  0  0  0
   19.7360   20.9521   21.1288 H   0  0  0  0  0  0  0  0  0  0  0  0
   18.4779   19.8866   20.5721 H   0  0  0  0  0  0  0  0  0  0  0  0
   18.5797   20.0489   22.7402 C   0  0  0  0  0  0  0  0  0  0  0  0
   18.5933   21.0953   23.0778 H   0  0  0  0  0  0  0  0  0  0  0  0
   19.2278   19.1766   23.8443 C   0  0  0  0  0  0  0  0  0  0  0  0
   18.5948   19.2093   24.7406 H   0  0  0  0  0  0  0  0  0  0  0  0
   19.2264   18.1253   23.5324 H   0  0  0  0  0  0  0  0  0  0  0  0
   20.6617   19.5895   24.2607 C   0  0  0  0  0  0  0  0  0  0  0  0
   20.5988   20.4268   24.9692 H   0  0  0  0  0  0  0  0  0  0  0  0
   21.1159   18.7581   24.8165 H   0  0  0  0  0  0  0  0  0  0  0  0
   17.2265   19.6295   22.6050 O   0  0  0  0  0  0  0  0  0  0  0  0
   16.8095   19.7321   23.4858 H   0  0  0  0  0  0  0  0  0  0  0  0
  1  2  1  0  0  0  0
  1  3  1  0  0  0  0
  1  4  1  0  0  0  0
  4  5  1  0  0  0  0
  4  6  1  0  0  0  0
  4  7  1  0  0  0  0
  7  8  1  0  0  0  0
  7  9  1  0  0  0  0
  7 10  1  0  0  0  0
 10 11  1  0  0  0  0
 10 12  1  0  0  0  0
 10 13  1  0  0  0  0
 13 14  1  0  0  0  0
 13 15  1  0  0  0  0
 15 16  1  0  0  0  0
 15 17  1  0  0  0  0
  1 18  1  0  0  0  0
 15 18  1  0  0  0  0
 18 19  1  0  0  0  0
 18 20  1  0  0  0  0
 13 21  1  0  0  0  0
 21 22  1  0  0  0  0
M  END
> <VConfSearch Rank>
657

> <Conf_Id>
141

> <Delta U+W>
0.000

> <U+W>
6.423

> <U>
8.781

> <W>
-2.358

> <W(PB)>
-4.373

> <W(SA)>
2.015

> <Valence>
13.328

> <Coulomb>
-8.387

> <VdW>
3.840

> <VdW6>
-9.744

> <VdW12>
13.584

> <Bond>
0.436

> <Angle>
3.478

> <Pdih>
9.415

> <Idih>
0.000

> <Tether>
0.000

$$$$
VeraChem MOL file


 22 22  0  0  0  0  0  0  0  0999 V2000     
   20.6163   21.1624   22.1572 C   0  0  0  0  0  0  0  0  0  0  0  0
   20.3341   21.5679   23.1383 H   0  0  0  0  0  0  0  0  0  0  0  0
   21.1185   21.9808   21.6234 H   0  0  0  0  0  0  0  0  0  0  0  0
   19.3624   20.7682   21.3398 C   0  0  0  0  0  0  0  0  0  0  0  0
   18.8217   21.6841   21.0649 H   0  0  0  0  0  0  0  0  0  0  0  0
   19.6752   20.3103   20.3914 H   0  0  0  0  0  0  0  0  0  0  0  0
   18.3745   19.8235   22.0623 C   0  0  0  0  0  0  0  0  0  0  0  0
   17.5702   19.5668   21.3595 H   0  0  0  0  0  0  0  0  0  0  0  0
   17.8903   20.3638   22.8873 H   0  0  0  0  0  0  0  0  0  0  0  0
   18.9980   18.5124   22.6001 C   0  0  0  0  0  0  0  0  0  0  0  0
   18.1737   17.8409   22.8743 H   0  0  0  0  0  0  0  0  0  0  0  0
   19.5605   17.9985   21.8099 H   0  0  0  0  0  0  0  0  0  0  0  0
   19.8920   18.7414   23.8395 C   0  0  0  0  0  0  0  0  0  0  0  0
   19.4744   19.5802   24.4147 H   0  0  0  0  0  0  0  0  0  0  0  0
   21.3686   19.0633   23.5152 C   0  0  0  0  0  0  0  0  0  0  0  0
   21.8142   19.5129   24.4119 H   0  0  0  0  0  0  0  0  0  0  0  0
   21.9158   18.1265   23.3449 H   0  0  0  0  0  0  0  0  0  0  0  0
   21.6258   20.0005   22.3087 C   0  0  0  0  0  0  0  0  0  0  0  0
   22.6368   20.4175   22.4123 H   0  0  0  0  0  0  0  0  0  0  0  0
   21.6448   19.4102   21.3825 H   0  0  0  0  0  0  0  0  0  0  0  0
   19.8632   17.5715   24.6480 O   0  0  0  0  0  0  0  0  0  0  0  0
   18.9281   17.4288   24.9048 H   0  0  0  0  0  0  0  0  0  0  0  0
  1  2  1  0  0  0  0
  1  3  1  0  0  0  0
  1  4  1  0  0  0  0
  4  5  1  0  0  0  0
  4  6  1  0  0  0  0
  4  7  1  0  0  0  0
  7  8  1  0  0  0  0
  7  9  1  0  0  0  0
  7 10  1  0  0  0  0
 10 11  1  0  0  0  0
 10 12  1  0  0  0  0
 10 13  1  0  0  0  0
 13 14  1  0  0  0  0
 13 15  1  0  0  0  0
 15 16  1  0  0  0  0
 15 17  1  0  0  0  0
  1 18  1  0  0  0  0
 15 18  1  0  0  0  0
 18 19  1  0  0  0  0
 18 20  1  0  0  0  0
 13 21  1  0  0  0  0
 21 22  1  0  0  0  0
M  END
> <VConfSearch Rank>
658

> <Conf_Id>
144

> <Delta U+W>
-3.291

> <U+W>
3.132

> <U>
5.411

> <W>
-2.279

> <W(PB)>
-4.300

> <W(SA)>
2.021

> <Valence>
11.909

> <Coulomb>
-8.733

> <VdW>
2.236

> <VdW6>
-8.936

> <VdW12>
11.172

> <Bond>
0.223

> <Angle>
2.457

> <Pdih>
9.228

> <Idih>
0.000

> <Tether>
0.000

$$$$
VeraChem MOL file


 22 22  0  0  0  0  0  0  0  0999 V2000     
   21.1139   20.6437   23.3130 C   0  0  0  0  0  0  0  0  0  0  0  0
   22.0417   21.1768   23.5617 H   0  0  0  0  0  0  0  0  0  0  0  0
   20.3148   21.1458   23.8751 H   0  0  0  0  0  0  0  0  0  0  0  0
   21.2694   19.1742   23.7697 C   0  0  0  0  0  0  0  0  0  0  0  0
   21.8187   18.6096   23.0041 H   0  0  0  0  0  0  0  0  0  0  0  0
   21.9041   19.1459   24.6660 H   0  0  0  0  0  0  0  0  0  0  0  0
   19.9442   18.4461   24.1010 C   0  0  0  0  0  0  0  0  0  0  0  0
   19.6513   18.6884   25.1317 H   0  0  0  0  0  0  0  0  0  0  0  0
   20.1365   17.3645   24.0921 H   0  0  0  0  0  0  0  0  0  0  0  0
   18.7422   18.7520   23.1737 C   0  0  0  0  0  0  0  0  0  0  0  0
   18.0035   17.9499   23.3059 H   0  0  0  0  0  0  0  0  0  0  0  0
   18.2482   19.6708   23.5153 H   0  0  0  0  0  0  0  0  0  0  0  0
   19.0935   18.8877   21.6751 C   0  0  0  0  0  0  0  0  0  0  0  0
   19.9119   18.1977   21.4248 H   0  0  0  0  0  0  0  0  0  0  0  0
   19.4942   20.3295   21.2887 C   0  0  0  0  0  0  0  0  0  0  0  0
   19.4821   20.4164   20.1939 H   0  0  0  0  0  0  0  0  0  0  0  0
   18.7353   21.0319   21.6571 H   0  0  0  0  0  0  0  0  0  0  0  0
   20.8874   20.7803   21.7882 C   0  0  0  0  0  0  0  0  0  0  0  0
   21.6653   20.2195   21.2521 H   0  0  0  0  0  0  0  0  0  0  0  0
   21.0292   21.8325   21.5060 H   0  0  0  0  0  0  0  0  0  0  0  0
   17.9464   18.5347   20.9136 O   0  0  0  0  0  0  0  0  0  0  0  0
   17.2424   19.1676   21.1646 H   0  0  0  0  0  0  0  0  0  0  0  0
  1  2  1  0  0  0  0
  1  3  1  0  0  0  0
  1  4  1  0  0  0  0
  4  5  1  0  0  0  0
  4  6  1  0  0  0  0
  4  7  1  0  0  0  0
  7  8  1  0  0  0  0
  7  9  1  0  0  0  0
  7 10  1  0  0  0  0
 10 11  1  0  0  0  0
 10 12  1  0  0  0  0
 10 13  1  0  0  0  0
 13 14  1  0  0  0  0
 13 15  1  0  0  0  0
 15 16  1  0  0  0  0
 15 17  1  0  0  0  0
  1 18  1  0  0  0  0
 15 18  1  0  0  0  0
 18 19  1  0  0  0  0
 18 20  1  0  0  0  0
 13 21  1  0  0  0  0
 21 22  1  0  0  0  0
M  END
> <VConfSearch Rank>
659

> <Conf_Id>
76

> <Delta U+W>
-3.175

> <U+W>
3.248

> <U>
5.336

> <W>
-2.088

> <W(PB)>
-4.098

> <W(SA)>
2.010

> <Valence>
12.390

> <Coulomb>
-9.270

> <VdW>
2.216

> <VdW6>
-8.967

> <VdW12>
11.183

> <Bond>
0.218

> <Angle>
2.426

> <Pdih>
9.745

> <Idih>
0.000

> <Tether>
0.000

$$$$
VeraChem MOL file


 22 22  0  0  0  0  0  0  0  0999 V2000     
   18.3023   19.4235   23.3034 C   0  0  0  0  0  0  0  0  0  0  0  0
   17.7669   18.5086   23.5917 H   0  0  0  0  0  0  0  0  0  0  0  0
   17.6178   20.2528   23.5280 H   0  0  0  0  0  0  0  0  0  0  0  0
   18.5511   19.3780   21.7768 C   0  0  0  0  0  0  0  0  0  0  0  0
   18.7636   18.3448   21.4706 H   0  0  0  0  0  0  0  0  0  0  0  0
   17.6132   19.6468   21.2719 H   0  0  0  0  0  0  0  0  0  0  0  0
   19.6786   20.3071   21.2696 C   0  0  0  0  0  0  0  0  0  0  0  0
   19.6866   21.2553   21.8242 H   0  0  0  0  0  0  0  0  0  0  0  0
   19.4620   20.5671   20.2247 H   0  0  0  0  0  0  0  0  0  0  0  0
   21.0740   19.6339   21.3088 C   0  0  0  0  0  0  0  0  0  0  0  0
   21.0178   18.6577   20.8104 H   0  0  0  0  0  0  0  0  0  0  0  0
   21.7690   20.2330   20.7059 H   0  0  0  0  0  0  0  0  0  0  0  0
   21.7009   19.4425   22.7086 C   0  0  0  0  0  0  0  0  0  0  0  0
   22.5831   18.7996   22.5757 H   0  0  0  0  0  0  0  0  0  0  0  0
   20.7867   18.7518   23.7515 C   0  0  0  0  0  0  0  0  0  0  0  0
   20.4638   17.7733   23.3731 H   0  0  0  0  0  0  0  0  0  0  0  0
   21.3978   18.5390   24.6381 H   0  0  0  0  0  0  0  0  0  0  0  0
   19.5544   19.5802   24.1990 C   0  0  0  0  0  0  0  0  0  0  0  0
   19.2787   19.2809   25.2192 H   0  0  0  0  0  0  0  0  0  0  0  0
   19.8206   20.6431   24.2700 H   0  0  0  0  0  0  0  0  0  0  0  0
   22.1414   20.7034   23.2025 O   0  0  0  0  0  0  0  0  0  0  0  0
   22.4820   20.5453   24.1066 H   0  0  0  0  0  0  0  0  0  0  0  0
  1  2  1  0  0  0  0
  1  3  1  0  0  0  0
  1  4  1  0  0  0  0
  4  5  1  0  0  0  0
  4  6  1  0  0  0  0
  4  7  1  0  0  0  0
  7  8  1  0  0  0  0
  7  9  1  0  0  0  0
  7 10  1  0  0  0  0
 10 11  1  0  0  0  0
 10 12  1  0  0  0  0
 10 13  1  0  0  0  0
 13 14  1  0  0  0  0
 13 15  1  0  0  0  0
 15 16  1  0  0  0  0
 15 17  1  0  0  0  0
  1 18  1  0  0  0  0
 15 18  1  0  0  0  0
 18 19  1  0  0  0  0
 18 20  1  0  0  0  0
 13 21  1  0  0  0  0
 21 22  1  0  0  0  0
M  END
> <VConfSearch Rank>
660

> <Conf_Id>
95

> <Delta U+W>
-2.289

> <U+W>
4.134

> <U>
6.373

> <W>
-2.240

> <W(PB)>
-4.254

> <W(SA)>
2.015

> <Valence>
12.093

> <Coulomb>
-8.058

> <VdW>
2.339

> <VdW6>
-9.683

> <VdW12>
12.022

> <Bond>
0.268

> <Angle>
3.005

> <Pdih>
8.820

> <Idih>
0.000

> <Tether>
0.000

$$$$
VeraChem MOL file


 22 22  0  0  0  0  0  0  0  0999 V2000     
   19.1794   19.2785   21.0390 C   0  0  0  0  0  0  0  0  0  0  0  0
   19.6273   18.8922   20.1134 H   0  0  0  0  0  0  0  0  0  0  0  0
   18.1072   19.3899   20.8273 H   0  0  0  0  0  0  0  0  0  0  0  0
   19.7819   20.6754   21.3220 C   0  0  0  0  0  0  0  0  0  0  0  0
   20.8382   20.6861   21.0211 H   0  0  0  0  0  0  0  0  0  0  0  0
   19.2823   21.3999   20.6644 H   0  0  0  0  0  0  0  0  0  0  0  0
   19.6587   21.1580   22.7861 C   0  0  0  0  0  0  0  0  0  0  0  0
   18.6979   20.8513   23.2216 H   0  0  0  0  0  0  0  0  0  0  0  0
   19.6555   22.2563   22.7832 H   0  0  0  0  0  0  0  0  0  0  0  0
   20.8425   20.6915   23.6706 C   0  0  0  0  0  0  0  0  0  0  0  0
   21.7859   20.9368   23.1660 H   0  0  0  0  0  0  0  0  0  0  0  0
   20.8444   21.2834   24.5950 H   0  0  0  0  0  0  0  0  0  0  0  0
   20.8603   19.1933   24.0514 C   0  0  0  0  0  0  0  0  0  0  0  0
   21.8358   18.9961   24.5191 H   0  0  0  0  0  0  0  0  0  0  0  0
   20.7200   18.2105   22.8620 C   0  0  0  0  0  0  0  0  0  0  0  0
   21.5181   18.3911   22.1306 H   0  0  0  0  0  0  0  0  0  0  0  0
   20.8953   17.2003   23.2537 H   0  0  0  0  0  0  0  0  0  0  0  0
   19.3384   18.2209   22.1573 C   0  0  0  0  0  0  0  0  0  0  0  0
   19.1615   17.2319   21.7138 H   0  0  0  0  0  0  0  0  0  0  0  0
   18.5412   18.3517   22.9009 H   0  0  0  0  0  0  0  0  0  0  0  0
   19.8455   18.9397   25.0182 O   0  0  0  0  0  0  0  0  0  0  0  0
   19.9693   19.5950   25.7347 H   0  0  0  0  0  0  0  0  0  0  0  0
  1  2  1  0  0  0  0
  1  3  1  0  0  0  0
  1  4  1  0  0  0  0
  4  5  1  0  0  0  0
  4  6  1  0  0  0  0
  4  7  1  0  0  0  0
  7  8  1  0  0  0  0
  7  9  1  0  0  0  0
  7 10  1  0  0  0  0
 10 11  1  0  0  0  0
 10 12  1  0  0  0  0
 10 13  1  0  0  0  0
 13 14  1  0  0  0  0
 13 15  1  0  0  0  0
 15 16  1  0  0  0  0
 15 17  1  0  0  0  0
  1 18  1  0  0  0  0
 15 18  1  0  0  0  0
 18 19  1  0  0  0  0
 18 20  1  0  0  0  0
 13 21  1  0  0  0  0
 21 22  1  0  0  0  0
M  END
> <VConfSearch Rank>
661

> <Conf_Id>
41

> <Delta U+W>
-2.114

> <U+W>
4.310

> <U>
6.598

> <W>
-2.289

> <W(PB)>
-4.294

> <W(SA)>
2.005

> <Valence>
12.082

> <Coulomb>
-7.801

> <VdW>
2.317

> <VdW6>
-9.658

> <VdW12>
11.975

> <Bond>
0.267

> <Angle>
3.051

> <Pdih>
8.764

> <Idih>
0.000

> <Tether>
0.000

$$$$
VeraChem MOL file


 22 22  0  0  0  0  0  0  0  0999 V2000     
   19.1405   20.3642   21.6194 C   0  0  0  0  0  0  0  0  0  0  0  0
   18.3493   20.7137   20.9424 H   0  0  0  0  0  0  0  0  0  0  0  0
   19.7794   21.2349   21.8219 H   0  0  0  0  0  0  0  0  0  0  0  0
   19.9368   19.2605   20.8879 C   0  0  0  0  0  0  0  0  0  0  0  0
   19.2990   18.3768   20.7507 H   0  0  0  0  0  0  0  0  0  0  0  0
   20.1810   19.6154   19.8775 H   0  0  0  0  0  0  0  0  0  0  0  0
   21.2506   18.8445   21.5850 C   0  0  0  0  0  0  0  0  0  0  0  0
   21.9703   19.6723   21.5323 H   0  0  0  0  0  0  0  0  0  0  0  0
   21.6986   18.0280   21.0029 H   0  0  0  0  0  0  0  0  0  0  0  0
   21.0956   18.3684   23.0549 C   0  0  0  0  0  0  0  0  0  0  0  0
   20.3205   17.5944   23.1204 H   0  0  0  0  0  0  0  0  0  0  0  0
   22.0322   17.8750   23.3446 H   0  0  0  0  0  0  0  0  0  0  0  0
   20.8212   19.4779   24.1025 C   0  0  0  0  0  0  0  0  0  0  0  0
   21.0542   19.0467   25.0869 H   0  0  0  0  0  0  0  0  0  0  0  0
   19.3565   19.9806   24.1880 C   0  0  0  0  0  0  0  0  0  0  0  0
   18.8548   19.4269   24.9922 H   0  0  0  0  0  0  0  0  0  0  0  0
   19.3565   21.0283   24.5163 H   0  0  0  0  0  0  0  0  0  0  0  0
   18.4764   19.8590   22.9193 C   0  0  0  0  0  0  0  0  0  0  0  0
   18.1502   18.8183   22.7900 H   0  0  0  0  0  0  0  0  0  0  0  0
   17.5577   20.4361   23.0916 H   0  0  0  0  0  0  0  0  0  0  0  0
   21.6966   20.5837   23.8983 O   0  0  0  0  0  0  0  0  0  0  0  0
   21.5059   21.2302   24.6080 H   0  0  0  0  0  0  0  0  0  0  0  0
  1  2  1  0  0  0  0
  1  3  1  0  0  0  0
  1  4  1  0  0  0  0
  4  5  1  0  0  0  0
  4  6  1  0  0  0  0
  4  7  1  0  0  0  0
  7  8  1  0  0  0  0
  7  9  1  0  0  0  0
  7 10  1  0  0  0  0
 10 11  1  0  0  0  0
 10 12  1  0  0  0  0
 10 13  1  0  0  0  0
 13 14  1  0  0  0  0
 13 15  1  0  0  0  0
 15 16  1  0  0  0  0
 15 17  1  0  0  0  0
  1 18  1  0  0  0  0
 15 18  1  0  0  0  0
 18 19  1  0  0  0  0
 18 20  1  0  0  0  0
 13 21  1  0  0  0  0
 21 22  1  0  0  0  0
M  END
> <VConfSearch Rank>
662

> <Conf_Id>
104

> <Delta U+W>
-1.172

> <U+W>
5.252

> <U>
7.482

> <W>
-2.230

> <W(PB)>
-4.220

> <W(SA)>
1.990

> <Valence>
12.309

> <Coulomb>
-7.084

> <VdW>
2.258

> <VdW6>
-9.770

> <VdW12>
12.028

> <Bond>
0.284

> <Angle>
3.491

> <Pdih>
8.535

> <Idih>
0.000

> <Tether>
0.000

$$$$
VeraChem MOL file


 22 22  0  0  0  0  0  0  0  0999 V2000     
   20.6185   20.0054   21.1778 C   0  0  0  0  0  0  0  0  0  0  0  0
   19.8567   20.7851   21.0429 H   0  0  0  0  0  0  0  0  0  0  0  0
   21.2112   19.9988   20.2527 H   0  0  0  0  0  0  0  0  0  0  0  0
   19.9634   18.6136   21.3294 C   0  0  0  0  0  0  0  0  0  0  0  0
   19.6860   18.2464   20.3316 H   0  0  0  0  0  0  0  0  0  0  0  0
   20.7104   17.8982   21.6975 H   0  0  0  0  0  0  0  0  0  0  0  0
   18.6965   18.5612   22.2204 C   0  0  0  0  0  0  0  0  0  0  0  0
   18.5919   17.5417   22.6167 H   0  0  0  0  0  0  0  0  0  0  0  0
   17.8161   18.7170   21.5821 H   0  0  0  0  0  0  0  0  0  0  0  0
   18.6091   19.5751   23.3933 C   0  0  0  0  0  0  0  0  0  0  0  0
   18.3068   20.5541   22.9995 H   0  0  0  0  0  0  0  0  0  0  0  0
   17.7870   19.2630   24.0504 H   0  0  0  0  0  0  0  0  0  0  0  0
   19.8749   19.7586   24.2617 C   0  0  0  0  0  0  0  0  0  0  0  0
   19.5509   20.1663   25.2300 H   0  0  0  0  0  0  0  0  0  0  0  0
   20.8729   20.7741   23.6608 C   0  0  0  0  0  0  0  0  0  0  0  0
   20.3517   21.7271   23.5017 H   0  0  0  0  0  0  0  0  0  0  0  0
   21.6447   20.9816   24.4135 H   0  0  0  0  0  0  0  0  0  0  0  0
   21.5730   20.3588   22.3432 C   0  0  0  0  0  0  0  0  0  0  0  0
   22.2121   21.1935   22.0245 H   0  0  0  0  0  0  0  0  0  0  0  0
   22.2562   19.5199   22.5328 H   0  0  0  0  0  0  0  0  0  0  0  0
   20.5165   18.5113   24.4777 O   0  0  0  0  0  0  0  0  0  0  0  0
   20.6973   18.1768   23.5767 H   0  0  0  0  0  0  0  0  0  0  0  0
  1  2  1  0  0  0  0
  1  3  1  0  0  0  0
  1  4  1  0  0  0  0
  4  5  1  0  0  0  0
  4  6  1  0  0  0  0
  4  7  1  0  0  0  0
  7  8  1  0  0  0  0
  7  9  1  0  0  0  0
  7 10  1  0  0  0  0
 10 11  1  0  0  0  0
 10 12  1  0  0  0  0
 10 13  1  0  0  0  0
 13 14  1  0  0  0  0
 13 15  1  0  0  0  0
 15 16  1  0  0  0  0
 15 17  1  0  0  0  0
  1 18  1  0  0  0  0
 15 18  1  0  0  0  0
 18 19  1  0  0  0  0
 18 20  1  0  0  0  0
 13 21  1  0  0  0  0
 21 22  1  0  0  0  0
M  END
> <VConfSearch Rank>
663

> <Conf_Id>
99

> <Delta U+W>
-3.852

> <U+W>
2.572

> <U>
3.922

> <W>
-1.350

> <W(PB)>
-3.345

> <W(SA)>
1.995

> <Valence>
12.571

> <Coulomb>
-10.581

> <VdW>
1.932

> <VdW6>
-10.483

> <VdW12>
12.415

> <Bond>
0.268

> <Angle>
3.728

> <Pdih>
8.575

> <Idih>
0.000

> <Tether>
0.000

$$$$
VeraChem MOL file


 22 22  0  0  0  0  0  0  0  0999 V2000     
   19.2611   19.2705   21.2579 C   0  0  0  0  0  0  0  0  0  0  0  0
   19.2299   18.9165   20.2182 H   0  0  0  0  0  0  0  0  0  0  0  0
   18.2236   19.5404   21.4963 H   0  0  0  0  0  0  0  0  0  0  0  0
   20.1685   20.5348   21.3048 C   0  0  0  0  0  0  0  0  0  0  0  0
   20.5300   20.7281   20.2853 H   0  0  0  0  0  0  0  0  0  0  0  0
   19.5722   21.4191   21.5661 H   0  0  0  0  0  0  0  0  0  0  0  0
   21.4049   20.4490   22.2358 C   0  0  0  0  0  0  0  0  0  0  0  0
   22.0537   21.3113   22.0303 H   0  0  0  0  0  0  0  0  0  0  0  0
   22.0124   19.5764   21.9652 H   0  0  0  0  0  0  0  0  0  0  0  0
   21.1090   20.4296   23.7612 C   0  0  0  0  0  0  0  0  0  0  0  0
   21.9716   19.9828   24.2722 H   0  0  0  0  0  0  0  0  0  0  0  0
   21.0652   21.4668   24.1191 H   0  0  0  0  0  0  0  0  0  0  0  0
   19.8256   19.7133   24.2488 C   0  0  0  0  0  0  0  0  0  0  0  0
   19.9120   19.6108   25.3401 H   0  0  0  0  0  0  0  0  0  0  0  0
   19.5757   18.2939   23.6821 C   0  0  0  0  0  0  0  0  0  0  0  0
   20.2569   17.5947   24.1839 H   0  0  0  0  0  0  0  0  0  0  0  0
   18.5670   17.9877   23.9901 H   0  0  0  0  0  0  0  0  0  0  0  0
   19.7059   18.0821   22.1482 C   0  0  0  0  0  0  0  0  0  0  0  0
   20.7361   17.7984   21.8996 H   0  0  0  0  0  0  0  0  0  0  0  0
   19.1049   17.2031   21.8782 H   0  0  0  0  0  0  0  0  0  0  0  0
   18.6963   20.5335   23.9934 O   0  0  0  0  0  0  0  0  0  0  0  0
   18.6634   20.5932   23.0176 H   0  0  0  0  0  0  0  0  0  0  0  0
  1  2  1  0  0  0  0
  1  3  1  0  0  0  0
  1  4  1  0  0  0  0
  4  5  1  0  0  0  0
  4  6  1  0  0  0  0
  4  7  1  0  0  0  0
  7  8  1  0  0  0  0
  7  9  1  0  0  0  0
  7 10  1  0  0  0  0
 10 11  1  0  0  0  0
 10 12  1  0  0  0  0
 10 13  1  0  0  0  0
 13 14  1  0  0  0  0
 13 15  1  0  0  0  0
 15 16  1  0  0  0  0
 15 17  1  0  0  0  0
  1 18  1  0  0  0  0
 15 18  1  0  0  0  0
 18 19  1  0  0  0  0
 18 20  1  0  0  0  0
 13 21  1  0  0  0  0
 21 22  1  0  0  0  0
M  END
> <VConfSearch Rank>
664

> <Conf_Id>
98

> <Delta U+W>
0.930

> <U+W>
7.353

> <U>
8.455

> <W>
-1.102

> <W(PB)>
-3.101

> <W(SA)>
2.000

> <Valence>
15.601

> <Coulomb>
-10.573

> <VdW>
3.427

> <VdW6>
-11.360

> <VdW12>
14.787

> <Bond>
0.471

> <Angle>
5.445

> <Pdih>
9.685

> <Idih>
0.000

> <Tether>
0.000

$$$$
VeraChem MOL file


 22 22  0  0  0  0  0  0  0  0999 V2000     
   20.8366   18.5661   21.4959 C   0  0  0  0  0  0  0  0  0  0  0  0
   20.7629   19.4187   20.8086 H   0  0  0  0  0  0  0  0  0  0  0  0
   21.4073   17.8053   20.9462 H   0  0  0  0  0  0  0  0  0  0  0  0
   19.4217   18.0054   21.7888 C   0  0  0  0  0  0  0  0  0  0  0  0
   18.9808   17.7029   20.8291 H   0  0  0  0  0  0  0  0  0  0  0  0
   19.5066   17.0839   22.3807 H   0  0  0  0  0  0  0  0  0  0  0  0
   18.4311   18.9744   22.4919 C   0  0  0  0  0  0  0  0  0  0  0  0
   18.3384   18.7126   23.5539 H   0  0  0  0  0  0  0  0  0  0  0  0
   17.4306   18.8062   22.0709 H   0  0  0  0  0  0  0  0  0  0  0  0
   18.7795   20.4806   22.3591 C   0  0  0  0  0  0  0  0  0  0  0  0
   18.9337   20.7223   21.3001 H   0  0  0  0  0  0  0  0  0  0  0  0
   17.8988   21.0658   22.6561 H   0  0  0  0  0  0  0  0  0  0  0  0
   20.0094   20.9691   23.1793 C   0  0  0  0  0  0  0  0  0  0  0  0
   20.6293   21.5943   22.5206 H   0  0  0  0  0  0  0  0  0  0  0  0
   20.9085   19.8584   23.7777 C   0  0  0  0  0  0  0  0  0  0  0  0
   21.6612   20.3224   24.4282 H   0  0  0  0  0  0  0  0  0  0  0  0
   20.3135   19.2192   24.4410 H   0  0  0  0  0  0  0  0  0  0  0  0
   21.6532   18.9777   22.7435 C   0  0  0  0  0  0  0  0  0  0  0  0
   22.5511   19.5113   22.4032 H   0  0  0  0  0  0  0  0  0  0  0  0
   22.0146   18.0736   23.2520 H   0  0  0  0  0  0  0  0  0  0  0  0
   19.5416   21.7675   24.2605 O   0  0  0  0  0  0  0  0  0  0  0  0
   20.3348   22.1079   24.7243 H   0  0  0  0  0  0  0  0  0  0  0  0
  1  2  1  0  0  0  0
  1  3  1  0  0  0  0
  1  4  1  0  0  0  0
  4  5  1  0  0  0  0
  4  6  1  0  0  0  0
  4  7  1  0  0  0  0
  7  8  1  0  0  0  0
  7  9  1  0  0  0  0
  7 10  1  0  0  0  0
 10 11  1  0  0  0  0
 10 12  1  0  0  0  0
 10 13  1  0  0  0  0
 13 14  1  0  0  0  0
 13 15  1  0  0  0  0
 15 16  1  0  0  0  0
 15 17  1  0  0  0  0
  1 18  1  0  0  0  0
 15 18  1  0  0  0  0
 18 19  1  0  0  0  0
 18 20  1  0  0  0  0
 13 21  1  0  0  0  0
 21 22  1  0  0  0  0
M  END
> <VConfSearch Rank>
665

> <Conf_Id>
141

> <Delta U+W>
0.000

> <U+W>
6.423

> <U>
8.781

> <W>
-2.358

> <W(PB)>
-4.373

> <W(SA)>
2.015

> <Valence>
13.328

> <Coulomb>
-8.387

> <VdW>
3.840

> <VdW6>
-9.744

> <VdW12>
13.584

> <Bond>
0.436

> <Angle>
3.478

> <Pdih>
9.415

> <Idih>
0.000

> <Tether>
0.000

$$$$
VeraChem MOL file


 22 22  0  0  0  0  0  0  0  0999 V2000     
   20.2694   17.9915   23.2554 C   0  0  0  0  0  0  0  0  0  0  0  0
   20.9907   18.4076   23.9717 H   0  0  0  0  0  0  0  0  0  0  0  0
   20.2166   16.9150   23.4683 H   0  0  0  0  0  0  0  0  0  0  0  0
   20.7739   18.1584   21.8016 C   0  0  0  0  0  0  0  0  0  0  0  0
   21.6463   17.5066   21.6570 H   0  0  0  0  0  0  0  0  0  0  0  0
   20.0078   17.7902   21.1058 H   0  0  0  0  0  0  0  0  0  0  0  0
   21.1761   19.5974   21.4045 C   0  0  0  0  0  0  0  0  0  0  0  0
   21.4486   19.5954   20.3403 H   0  0  0  0  0  0  0  0  0  0  0  0
   22.0876   19.8843   21.9465 H   0  0  0  0  0  0  0  0  0  0  0  0
   20.0819   20.6689   21.6324 C   0  0  0  0  0  0  0  0  0  0  0  0
   20.3955   21.5806   21.1071 H   0  0  0  0  0  0  0  0  0  0  0  0
   19.1354   20.3602   21.1700 H   0  0  0  0  0  0  0  0  0  0  0  0
   19.8719   20.9983   23.1274 C   0  0  0  0  0  0  0  0  0  0  0  0
   20.8382   20.8951   23.6417 H   0  0  0  0  0  0  0  0  0  0  0  0
   18.8418   20.0964   23.8450 C   0  0  0  0  0  0  0  0  0  0  0  0
   19.0093   20.1968   24.9251 H   0  0  0  0  0  0  0  0  0  0  0  0
   17.8302   20.4820   23.6603 H   0  0  0  0  0  0  0  0  0  0  0  0
   18.8613   18.5918   23.4764 C   0  0  0  0  0  0  0  0  0  0  0  0
   18.3601   18.0384   24.2822 H   0  0  0  0  0  0  0  0  0  0  0  0
   18.2485   18.4251   22.5801 H   0  0  0  0  0  0  0  0  0  0  0  0
   19.4329   22.3464   23.2424 O   0  0  0  0  0  0  0  0  0  0  0  0
   20.1349   22.9063   22.8495 H   0  0  0  0  0  0  0  0  0  0  0  0
  1  2  1  0  0  0  0
  1  3  1  0  0  0  0
  1  4  1  0  0  0  0
  4  5  1  0  0  0  0
  4  6  1  0  0  0  0
  4  7  1  0  0  0  0
  7  8  1  0  0  0  0
  7  9  1  0  0  0  0
  7 10  1  0  0  0  0
 10 11  1  0  0  0  0
 10 12  1  0  0  0  0
 10 13  1  0  0  0  0
 13 14  1  0  0  0  0
 13 15  1  0  0  0  0
 15 16  1  0  0  0  0
 15 17  1  0  0  0  0
  1 18  1  0  0  0  0
 15 18  1  0  0  0  0
 18 19  1  0  0  0  0
 18 20  1  0  0  0  0
 13 21  1  0  0  0  0
 21 22  1  0  0  0  0
M  END
> <VConfSearch Rank>
666

> <Conf_Id>
144

> <Delta U+W>
-3.291

> <U+W>
3.132

> <U>
5.411

> <W>
-2.279

> <W(PB)>
-4.300

> <W(SA)>
2.021

> <Valence>
11.909

> <Coulomb>
-8.733

> <VdW>
2.236

> <VdW6>
-8.936

> <VdW12>
11.172

> <Bond>
0.223

> <Angle>
2.457

> <Pdih>
9.228

> <Idih>
0.000

> <Tether>
0.000

$$$$
VeraChem MOL file


 22 22  0  0  0  0  0  0  0  0999 V2000     
   18.8312   20.4788   23.6109 C   0  0  0  0  0  0  0  0  0  0  0  0
   18.1739   21.2658   24.0052 H   0  0  0  0  0  0  0  0  0  0  0  0
   18.7513   19.6368   24.3118 H   0  0  0  0  0  0  0  0  0  0  0  0
   20.2747   21.0331   23.5778 C   0  0  0  0  0  0  0  0  0  0  0  0
   20.4160   21.6306   22.6668 H   0  0  0  0  0  0  0  0  0  0  0  0
   20.4046   21.7361   24.4120 H   0  0  0  0  0  0  0  0  0  0  0  0
   21.3905   19.9648   23.6765 C   0  0  0  0  0  0  0  0  0  0  0  0
   21.5572   19.7189   24.7342 H   0  0  0  0  0  0  0  0  0  0  0  0
   22.3282   20.4157   23.3239 H   0  0  0  0  0  0  0  0  0  0  0  0
   21.1460   18.6434   22.9070 C   0  0  0  0  0  0  0  0  0  0  0  0
   22.1151   18.1405   22.7869 H   0  0  0  0  0  0  0  0  0  0  0  0
   20.5374   17.9725   23.5271 H   0  0  0  0  0  0  0  0  0  0  0  0
   20.4762   18.8089   21.5244 C   0  0  0  0  0  0  0  0  0  0  0  0
   20.8174   19.7449   21.0597 H   0  0  0  0  0  0  0  0  0  0  0  0
   18.9329   18.8046   21.6093 C   0  0  0  0  0  0  0  0  0  0  0  0
   18.5255   18.6692   20.5985 H   0  0  0  0  0  0  0  0  0  0  0  0
   18.6004   17.9339   22.1894 H   0  0  0  0  0  0  0  0  0  0  0  0
   18.3045   20.0843   22.2102 C   0  0  0  0  0  0  0  0  0  0  0  0
   18.4517   20.9227   21.5157 H   0  0  0  0  0  0  0  0  0  0  0  0
   17.2179   19.9357   22.2737 H   0  0  0  0  0  0  0  0  0  0  0  0
   20.8711   17.7181   20.7032 O   0  0  0  0  0  0  0  0  0  0  0  0
   20.5523   16.9065   21.1492 H   0  0  0  0  0  0  0  0  0  0  0  0
  1  2  1  0  0  0  0
  1  3  1  0  0  0  0
  1  4  1  0  0  0  0
  4  5  1  0  0  0  0
  4  6  1  0  0  0  0
  4  7  1  0  0  0  0
  7  8  1  0  0  0  0
  7  9  1  0  0  0  0
  7 10  1  0  0  0  0
 10 11  1  0  0  0  0
 10 12  1  0  0  0  0
 10 13  1  0  0  0  0
 13 14  1  0  0  0  0
 13 15  1  0  0  0  0
 15 16  1  0  0  0  0
 15 17  1  0  0  0  0
  1 18  1  0  0  0  0
 15 18  1  0  0  0  0
 18 19  1  0  0  0  0
 18 20  1  0  0  0  0
 13 21  1  0  0  0  0
 21 22  1  0  0  0  0
M  END
> <VConfSearch Rank>
667

> <Conf_Id>
76

> <Delta U+W>
-3.175

> <U+W>
3.248

> <U>
5.336

> <W>
-2.088

> <W(PB)>
-4.098

> <W(SA)>
2.010

> <Valence>
12.390

> <Coulomb>
-9.270

> <VdW>
2.216

> <VdW6>
-8.967

> <VdW12>
11.183

> <Bond>
0.218

> <Angle>
2.426

> <Pdih>
9.745

> <Idih>
0.000

> <Tether>
0.000

$$$$
VeraChem MOL file


 22 22  0  0  0  0  0  0  0  0999 V2000     
   21.8322   19.7689   22.0854 C   0  0  0  0  0  0  0  0  0  0  0  0
   22.1637   19.9677   21.0571 H   0  0  0  0  0  0  0  0  0  0  0  0
   22.7403   19.8011   22.7028 H   0  0  0  0  0  0  0  0  0  0  0  0
   21.2419   18.3393   22.1358 C   0  0  0  0  0  0  0  0  0  0  0  0
   20.7061   18.1307   21.1999 H   0  0  0  0  0  0  0  0  0  0  0  0
   22.0783   17.6275   22.1601 H   0  0  0  0  0  0  0  0  0  0  0  0
   20.3086   18.0588   23.3365 C   0  0  0  0  0  0  0  0  0  0  0  0
   20.6715   18.5620   24.2431 H   0  0  0  0  0  0  0  0  0  0  0  0
   20.3432   16.9822   23.5511 H   0  0  0  0  0  0  0  0  0  0  0  0
   18.8328   18.4356   23.0502 C   0  0  0  0  0  0  0  0  0  0  0  0
   18.5207   17.9776   22.1030 H   0  0  0  0  0  0  0  0  0  0  0  0
   18.1987   17.9789   23.8215 H   0  0  0  0  0  0  0  0  0  0  0  0
   18.5107   19.9466   23.0022 C   0  0  0  0  0  0  0  0  0  0  0  0
   17.4859   20.0401   22.6146 H   0  0  0  0  0  0  0  0  0  0  0  0
   19.4264   20.7867   22.0769 C   0  0  0  0  0  0  0  0  0  0  0  0
   19.3913   20.3862   21.0555 H   0  0  0  0  0  0  0  0  0  0  0  0
   18.9977   21.7952   22.0140 H   0  0  0  0  0  0  0  0  0  0  0  0
   20.8990   20.9139   22.5463 C   0  0  0  0  0  0  0  0  0  0  0  0
   21.3110   21.8583   22.1657 H   0  0  0  0  0  0  0  0  0  0  0  0
   20.9398   20.9989   23.6401 H   0  0  0  0  0  0  0  0  0  0  0  0
   18.5345   20.4743   24.3247 O   0  0  0  0  0  0  0  0  0  0  0  0
   18.3780   21.4372   24.2436 H   0  0  0  0  0  0  0  0  0  0  0  0
  1  2  1  0  0  0  0
  1  3  1  0  0  0  0
  1  4  1  0  0  0  0
  4  5  1  0  0  0  0
  4  6  1  0  0  0  0
  4  7  1  0  0  0  0
  7  8  1  0  0  0  0
  7  9  1  0  0  0  0
  7 10  1  0  0  0  0
 10 11  1  0  0  0  0
 10 12  1  0  0  0  0
 10 13  1  0  0  0  0
 13 14  1  0  0  0  0
 13 15  1  0  0  0  0
 15 16  1  0  0  0  0
 15 17  1  0  0  0  0
  1 18  1  0  0  0  0
 15 18  1  0  0  0  0
 18 19  1  0  0  0  0
 18 20  1  0  0  0  0
 13 21  1  0  0  0  0
 21 22  1  0  0  0  0
M  END
> <VConfSearch Rank>
668

> <Conf_Id>
95

> <Delta U+W>
-2.289

> <U+W>
4.134

> <U>
6.373

> <W>
-2.240

> <W(PB)>
-4.254

> <W(SA)>
2.015

> <Valence>
12.093

> <Coulomb>
-8.058

> <VdW>
2.339

> <VdW6>
-9.683

> <VdW12>
12.022

> <Bond>
0.268

> <Angle>
3.005

> <Pdih>
8.820

> <Idih>
0.000

> <Tether>
0.000

$$$$
VeraChem MOL file


 22 22  0  0  0  0  0  0  0  0999 V2000     
   20.5985   19.3746   20.8952 C   0  0  0  0  0  0  0  0  0  0  0  0
   20.1247   19.7625   19.9832 H   0  0  0  0  0  0  0  0  0  0  0  0
   21.4935   18.8336   20.5590 H   0  0  0  0  0  0  0  0  0  0  0  0
   19.6249   18.3702   21.5567 C   0  0  0  0  0  0  0  0  0  0  0  0
   18.5921   18.7189   21.4219 H   0  0  0  0  0  0  0  0  0  0  0  0
   19.6889   17.4223   21.0052 H   0  0  0  0  0  0  0  0  0  0  0  0
   19.8844   18.0969   23.0565 C   0  0  0  0  0  0  0  0  0  0  0  0
   20.9614   18.0746   23.2716 H   0  0  0  0  0  0  0  0  0  0  0  0
   19.5060   17.0925   23.2898 H   0  0  0  0  0  0  0  0  0  0  0  0
   19.1549   19.1031   23.9822 C   0  0  0  0  0  0  0  0  0  0  0  0
   18.1001   19.1647   23.6848 H   0  0  0  0  0  0  0  0  0  0  0  0
   19.1464   18.6987   25.0026 H   0  0  0  0  0  0  0  0  0  0  0  0
   19.7396   20.5333   24.0300 C   0  0  0  0  0  0  0  0  0  0  0  0
   19.0176   21.1534   24.5808 H   0  0  0  0  0  0  0  0  0  0  0  0
   19.9532   21.2032   22.6494 C   0  0  0  0  0  0  0  0  0  0  0  0
   19.0048   21.2353   22.0979 H   0  0  0  0  0  0  0  0  0  0  0  0
   20.2273   22.2496   22.8356 H   0  0  0  0  0  0  0  0  0  0  0  0
   21.0599   20.5644   21.7705 C   0  0  0  0  0  0  0  0  0  0  0  0
   21.4691   21.3350   21.1035 H   0  0  0  0  0  0  0  0  0  0  0  0
   21.9021   20.2500   22.4009 H   0  0  0  0  0  0  0  0  0  0  0  0
   20.9617   20.5197   24.7616 O   0  0  0  0  0  0  0  0  0  0  0  0
   20.7753   20.0734   25.6126 H   0  0  0  0  0  0  0  0  0  0  0  0
  1  2  1  0  0  0  0
  1  3  1  0  0  0  0
  1  4  1  0  0  0  0
  4  5  1  0  0  0  0
  4  6  1  0  0  0  0
  4  7  1  0  0  0  0
  7  8  1  0  0  0  0
  7  9  1  0  0  0  0
  7 10  1  0  0  0  0
 10 11  1  0  0  0  0
 10 12  1  0  0  0  0
 10 13  1  0  0  0  0
 13 14  1  0  0  0  0
 13 15  1  0  0  0  0
 15 16  1  0  0  0  0
 15 17  1  0  0  0  0
  1 18  1  0  0  0  0
 15 18  1  0  0  0  0
 18 19  1  0  0  0  0
 18 20  1  0  0  0  0
 13 21  1  0  0  0  0
 21 22  1  0  0  0  0
M  END
> <VConfSearch Rank>
669

> <Conf_Id>
41

> <Delta U+W>
-2.114

> <U+W>
4.310

> <U>
6.598

> <W>
-2.289

> <W(PB)>
-4.294

> <W(SA)>
2.005

> <Valence>
12.082

> <Coulomb>
-7.801

> <VdW>
2.317

> <VdW6>
-9.658

> <VdW12>
11.975

> <Bond>
0.267

> <Angle>
3.051

> <Pdih>
8.764

> <Idih>
0.000

> <Tether>
0.000

$$$$
VeraChem MOL file


 22 22  0  0  0  0  0  0  0  0999 V2000     
   21.6125   19.3906   23.3658 C   0  0  0  0  0  0  0  0  0  0  0  0
   22.5935   19.0444   23.7186 H   0  0  0  0  0  0  0  0  0  0  0  0
   21.6813   20.4844   23.2887 H   0  0  0  0  0  0  0  0  0  0  0  0
   20.5588   18.9822   24.4196 C   0  0  0  0  0  0  0  0  0  0  0  0
   20.4610   17.8883   24.4367 H   0  0  0  0  0  0  0  0  0  0  0  0
   20.9285   19.2670   25.4139 H   0  0  0  0  0  0  0  0  0  0  0  0
   19.1669   19.6210   24.2200 C   0  0  0  0  0  0  0  0  0  0  0  0
   19.2290   20.7001   24.4136 H   0  0  0  0  0  0  0  0  0  0  0  0
   18.4974   19.2216   24.9934 H   0  0  0  0  0  0  0  0  0  0  0  0
   18.5171   19.3668   22.8328 C   0  0  0  0  0  0  0  0  0  0  0  0
   18.5248   18.2935   22.6041 H   0  0  0  0  0  0  0  0  0  0  0  0
   17.4583   19.6465   22.9059 H   0  0  0  0  0  0  0  0  0  0  0  0
   19.1184   20.1621   21.6454 C   0  0  0  0  0  0  0  0  0  0  0  0
   18.3766   20.1268   20.8344 H   0  0  0  0  0  0  0  0  0  0  0  0
   20.4347   19.5979   21.0504 C   0  0  0  0  0  0  0  0  0  0  0  0
   20.1748   18.9687   20.1892 H   0  0  0  0  0  0  0  0  0  0  0  0
   21.0233   20.4263   20.6346 H   0  0  0  0  0  0  0  0  0  0  0  0
   21.3468   18.7604   21.9808 C   0  0  0  0  0  0  0  0  0  0  0  0
   20.9281   17.7526   22.1050 H   0  0  0  0  0  0  0  0  0  0  0  0
   22.3084   18.6185   21.4692 H   0  0  0  0  0  0  0  0  0  0  0  0
   19.3011   21.5295   22.0030 O   0  0  0  0  0  0  0  0  0  0  0  0
   19.6427   21.9865   21.2078 H   0  0  0  0  0  0  0  0  0  0  0  0
  1  2  1  0  0  0  0
  1  3  1  0  0  0  0
  1  4  1  0  0  0  0
  4  5  1  0  0  0  0
  4  6  1  0  0  0  0
  4  7  1  0  0  0  0
  7  8  1  0  0  0  0
  7  9  1  0  0  0  0
  7 10  1  0  0  0  0
 10 11  1  0  0  0  0
 10 12  1  0  0  0  0
 10 13  1  0  0  0  0
 13 14  1  0  0  0  0
 13 15  1  0  0  0  0
 15 16  1  0  0  0  0
 15 17  1  0  0  0  0
  1 18  1  0  0  0  0
 15 18  1  0  0  0  0
 18 19  1  0  0  0  0
 18 20  1  0  0  0  0
 13 21  1  0  0  0  0
 21 22  1  0  0  0  0
M  END
> <VConfSearch Rank>
670

> <Conf_Id>
104

> <Delta U+W>
-1.172

> <U+W>
5.252

> <U>
7.482

> <W>
-2.230

> <W(PB)>
-4.220

> <W(SA)>
1.990

> <Valence>
12.309

> <Coulomb>
-7.084

> <VdW>
2.258

> <VdW6>
-9.770

> <VdW12>
12.028

> <Bond>
0.284

> <Angle>
3.491

> <Pdih>
8.535

> <Idih>
0.000

> <Tether>
0.000

$$$$
VeraChem MOL file


 22 22  0  0  0  0  0  0  0  0999 V2000     
   19.8226   20.8944   23.6384 C   0  0  0  0  0  0  0  0  0  0  0  0
   20.8087   21.3229   23.4137 H   0  0  0  0  0  0  0  0  0  0  0  0
   19.3516   21.5801   24.3561 H   0  0  0  0  0  0  0  0  0  0  0  0
   19.9627   19.5159   24.3236 C   0  0  0  0  0  0  0  0  0  0  0  0
   20.1961   19.6746   25.3855 H   0  0  0  0  0  0  0  0  0  0  0  0
   18.9897   19.0074   24.3198 H   0  0  0  0  0  0  0  0  0  0  0  0
   21.0503   18.5814   23.7360 C   0  0  0  0  0  0  0  0  0  0  0  0
   20.7735   17.5418   23.9597 H   0  0  0  0  0  0  0  0  0  0  0  0
   21.9890   18.7560   24.2794 H   0  0  0  0  0  0  0  0  0  0  0  0
   21.3568   18.7118   22.2193 C   0  0  0  0  0  0  0  0  0  0  0  0
   22.0020   19.5850   22.0574 H   0  0  0  0  0  0  0  0  0  0  0  0
   21.9631   17.8469   21.9206 H   0  0  0  0  0  0  0  0  0  0  0  0
   20.1468   18.8042   21.2615 C   0  0  0  0  0  0  0  0  0  0  0  0
   20.4942   18.4953   20.2651 H   0  0  0  0  0  0  0  0  0  0  0  0
   19.6029   20.2436   21.1186 C   0  0  0  0  0  0  0  0  0  0  0  0
   20.4227   20.8989   20.7967 H   0  0  0  0  0  0  0  0  0  0  0  0
   18.8756   20.2545   20.2963 H   0  0  0  0  0  0  0  0  0  0  0  0
   18.9330   20.8573   22.3730 C   0  0  0  0  0  0  0  0  0  0  0  0
   18.6394   21.8870   22.1276 H   0  0  0  0  0  0  0  0  0  0  0  0
   17.9960   20.3276   22.5916 H   0  0  0  0  0  0  0  0  0  0  0  0
   19.1111   17.9291   21.6807 O   0  0  0  0  0  0  0  0  0  0  0  0
   18.9161   18.2117   22.5963 H   0  0  0  0  0  0  0  0  0  0  0  0
  1  2  1  0  0  0  0
  1  3  1  0  0  0  0
  1  4  1  0  0  0  0
  4  5  1  0  0  0  0
  4  6  1  0  0  0  0
  4  7  1  0  0  0  0
  7  8  1  0  0  0  0
  7  9  1  0  0  0  0
  7 10  1  0  0  0  0
 10 11  1  0  0  0  0
 10 12  1  0  0  0  0
 10 13  1  0  0  0  0
 13 14  1  0  0  0  0
 13 15  1  0  0  0  0
 15 16  1  0  0  0  0
 15 17  1  0  0  0  0
  1 18  1  0  0  0  0
 15 18  1  0  0  0  0
 18 19  1  0  0  0  0
 18 20  1  0  0  0  0
 13 21  1  0  0  0  0
 21 22  1  0  0  0  0
M  END
> <VConfSearch Rank>
671

> <Conf_Id>
99

> <Delta U+W>
-3.852

> <U+W>
2.572

> <U>
3.922

> <W>
-1.350

> <W(PB)>
-3.345

> <W(SA)>
1.995

> <Valence>
12.571

> <Coulomb>
-10.581

> <VdW>
1.932

> <VdW6>
-10.483

> <VdW12>
12.415

> <Bond>
0.268

> <Angle>
3.728

> <Pdih>
8.575

> <Idih>
0.000

> <Tether>
0.000

$$$$
VeraChem MOL file


 22 22  0  0  0  0  0  0  0  0999 V2000     
   19.0661   19.3657   23.9850 C   0  0  0  0  0  0  0  0  0  0  0  0
   18.1517   19.5865   24.5527 H   0  0  0  0  0  0  0  0  0  0  0  0
   19.5776   18.5855   24.5644 H   0  0  0  0  0  0  0  0  0  0  0  0
   19.9301   20.6604   23.9491 C   0  0  0  0  0  0  0  0  0  0  0  0
   19.3896   21.4415   24.5014 H   0  0  0  0  0  0  0  0  0  0  0  0
   20.8615   20.5095   24.5110 H   0  0  0  0  0  0  0  0  0  0  0  0
   20.2582   21.2190   22.5409 C   0  0  0  0  0  0  0  0  0  0  0  0
   20.6952   22.2199   22.6584 H   0  0  0  0  0  0  0  0  0  0  0  0
   19.3284   21.3878   21.9836 H   0  0  0  0  0  0  0  0  0  0  0  0
   21.2374   20.3707   21.6827 C   0  0  0  0  0  0  0  0  0  0  0  0
   21.0829   20.6313   20.6278 H   0  0  0  0  0  0  0  0  0  0  0  0
   22.2635   20.6875   21.9125 H   0  0  0  0  0  0  0  0  0  0  0  0
   21.1835   18.8291   21.8196 C   0  0  0  0  0  0  0  0  0  0  0  0
   21.7712   18.4139   20.9883 H   0  0  0  0  0  0  0  0  0  0  0  0
   19.7781   18.1832   21.7435 C   0  0  0  0  0  0  0  0  0  0  0  0
   19.4512   18.1850   20.6957 H   0  0  0  0  0  0  0  0  0  0  0  0
   19.8861   17.1237   22.0118 H   0  0  0  0  0  0  0  0  0  0  0  0
   18.6409   18.7948   22.6080 C   0  0  0  0  0  0  0  0  0  0  0  0
   18.1136   19.5668   22.0339 H   0  0  0  0  0  0  0  0  0  0  0  0
   17.8880   18.0125   22.7749 H   0  0  0  0  0  0  0  0  0  0  0  0
   21.8240   18.4353   23.0229 O   0  0  0  0  0  0  0  0  0  0  0  0
   21.2673   18.8261   23.7259 H   0  0  0  0  0  0  0  0  0  0  0  0
  1  2  1  0  0  0  0
  1  3  1  0  0  0  0
  1  4  1  0  0  0  0
  4  5  1  0  0  0  0
  4  6  1  0  0  0  0
  4  7  1  0  0  0  0
  7  8  1  0  0  0  0
  7  9  1  0  0  0  0
  7 10  1  0  0  0  0
 10 11  1  0  0  0  0
 10 12  1  0  0  0  0
 10 13  1  0  0  0  0
 13 14  1  0  0  0  0
 13 15  1  0  0  0  0
 15 16  1  0  0  0  0
 15 17  1  0  0  0  0
  1 18  1  0  0  0  0
 15 18  1  0  0  0  0
 18 19  1  0  0  0  0
 18 20  1  0  0  0  0
 13 21  1  0  0  0  0
 21 22  1  0  0  0  0
M  END
> <VConfSearch Rank>
672

> <Conf_Id>
98

> <Delta U+W>
0.930

> <U+W>
7.353

> <U>
8.455

> <W>
-1.102

> <W(PB)>
-3.101

> <W(SA)>
2.000

> <Valence>
15.601

> <Coulomb>
-10.573

> <VdW>
3.427

> <VdW6>
-11.360

> <VdW12>
14.787

> <Bond>
0.471

> <Angle>
5.445

> <Pdih>
9.685

> <Idih>
0.000

> <Tether>
0.000

$$$$
VeraChem MOL file


 22 22  0  0  0  0  0  0  0  0999 V2000     
   20.6160   19.0433   24.1891 C   0  0  0  0  0  0  0  0  0  0  0  0
   21.2319   19.9518   24.1806 H   0  0  0  0  0  0  0  0  0  0  0  0
   20.8138   18.5738   25.1623 H   0  0  0  0  0  0  0  0  0  0  0  0
   21.0885   18.0794   23.0712 C   0  0  0  0  0  0  0  0  0  0  0  0
   22.1442   17.8433   23.2626 H   0  0  0  0  0  0  0  0  0  0  0  0
   20.5503   17.1256   23.1563 H   0  0  0  0  0  0  0  0  0  0  0  0
   20.9674   18.6058   21.6142 C   0  0  0  0  0  0  0  0  0  0  0  0
   20.1028   18.1457   21.1184 H   0  0  0  0  0  0  0  0  0  0  0  0
   21.8395   18.2511   21.0483 H   0  0  0  0  0  0  0  0  0  0  0  0
   20.8808   20.1491   21.4782 C   0  0  0  0  0  0  0  0  0  0  0  0
   21.7121   20.6062   22.0293 H   0  0  0  0  0  0  0  0  0  0  0  0
   21.0606   20.4134   20.4273 H   0  0  0  0  0  0  0  0  0  0  0  0
   19.5431   20.7985   21.9394 C   0  0  0  0  0  0  0  0  0  0  0  0
   19.7872   21.6736   22.5588 H   0  0  0  0  0  0  0  0  0  0  0  0
   18.5905   19.8839   22.7495 C   0  0  0  0  0  0  0  0  0  0  0  0
   17.6409   20.4114   22.9082 H   0  0  0  0  0  0  0  0  0  0  0  0
   18.3301   19.0014   22.1528 H   0  0  0  0  0  0  0  0  0  0  0  0
   19.1201   19.4332   24.1337 C   0  0  0  0  0  0  0  0  0  0  0  0
   18.9504   20.2404   24.8592 H   0  0  0  0  0  0  0  0  0  0  0  0
   18.5136   18.5850   24.4793 H   0  0  0  0  0  0  0  0  0  0  0  0
   18.8343   21.2377   20.7863 O   0  0  0  0  0  0  0  0  0  0  0  0
   18.0273   21.6920   21.1065 H   0  0  0  0  0  0  0  0  0  0  0  0
  1  2  1  0  0  0  0
  1  3  1  0  0  0  0
  1  4  1  0  0  0  0
  4  5  1  0  0  0  0
  4  6  1  0  0  0  0
  4  7  1  0  0  0  0
  7  8  1  0  0  0  0
  7  9  1  0  0  0  0
  7 10  1  0  0  0  0
 10 11  1  0  0  0  0
 10 12  1  0  0  0  0
 10 13  1  0  0  0  0
 13 14  1  0  0  0  0
 13 15  1  0  0  0  0
 15 16  1  0  0  0  0
 15 17  1  0  0  0  0
  1 18  1  0  0  0  0
 15 18  1  0  0  0  0
 18 19  1  0  0  0  0
 18 20  1  0  0  0  0
 13 21  1  0  0  0  0
 21 22  1  0  0  0  0
M  END
> <VConfSearch Rank>
673

> <Conf_Id>
141

> <Delta U+W>
0.000

> <U+W>
6.423

> <U>
8.781

> <W>
-2.358

> <W(PB)>
-4.373

> <W(SA)>
2.015

> <Valence>
13.328

> <Coulomb>
-8.387

> <VdW>
3.840

> <VdW6>
-9.744

> <VdW12>
13.584

> <Bond>
0.436

> <Angle>
3.478

> <Pdih>
9.415

> <Idih>
0.000

> <Tether>
0.000

$$$$
VeraChem MOL file


 22 22  0  0  0  0  0  0  0  0999 V2000     
   19.0946   21.1055   22.4798 C   0  0  0  0  0  0  0  0  0  0  0  0
   19.7354   21.3572   21.6238 H   0  0  0  0  0  0  0  0  0  0  0  0
   18.3589   21.9176   22.5575 H   0  0  0  0  0  0  0  0  0  0  0  0
   19.9107   21.0838   23.7947 C   0  0  0  0  0  0  0  0  0  0  0  0
   20.2203   22.1109   24.0314 H   0  0  0  0  0  0  0  0  0  0  0  0
   19.2597   20.7703   24.6222 H   0  0  0  0  0  0  0  0  0  0  0  0
   21.1738   20.1926   23.7721 C   0  0  0  0  0  0  0  0  0  0  0  0
   21.6224   20.2089   24.7748 H   0  0  0  0  0  0  0  0  0  0  0  0
   21.9222   20.6373   23.1019 H   0  0  0  0  0  0  0  0  0  0  0  0
   20.9276   18.7192   23.3649 C   0  0  0  0  0  0  0  0  0  0  0  0
   21.8349   18.1513   23.6092 H   0  0  0  0  0  0  0  0  0  0  0  0
   20.1213   18.2806   23.9670 H   0  0  0  0  0  0  0  0  0  0  0  0
   20.6262   18.5593   21.8578 C   0  0  0  0  0  0  0  0  0  0  0  0
   21.1884   19.3297   21.3108 H   0  0  0  0  0  0  0  0  0  0  0  0
   19.1322   18.6922   21.4843 C   0  0  0  0  0  0  0  0  0  0  0  0
   19.0764   18.8841   20.4050 H   0  0  0  0  0  0  0  0  0  0  0  0
   18.6304   17.7286   21.6448 H   0  0  0  0  0  0  0  0  0  0  0  0
   18.3261   19.7874   22.2266 C   0  0  0  0  0  0  0  0  0  0  0  0
   17.4269   20.0067   21.6348 H   0  0  0  0  0  0  0  0  0  0  0  0
   17.9591   19.3893   23.1824 H   0  0  0  0  0  0  0  0  0  0  0  0
   21.0741   17.2774   21.4343 O   0  0  0  0  0  0  0  0  0  0  0  0
   22.0376   17.2426   21.6105 H   0  0  0  0  0  0  0  0  0  0  0  0
  1  2  1  0  0  0  0
  1  3  1  0  0  0  0
  1  4  1  0  0  0  0
  4  5  1  0  0  0  0
  4  6  1  0  0  0  0
  4  7  1  0  0  0  0
  7  8  1  0  0  0  0
  7  9  1  0  0  0  0
  7 10  1  0  0  0  0
 10 11  1  0  0  0  0
 10 12  1  0  0  0  0
 10 13  1  0  0  0  0
 13 14  1  0  0  0  0
 13 15  1  0  0  0  0
 15 16  1  0  0  0  0
 15 17  1  0  0  0  0
  1 18  1  0  0  0  0
 15 18  1  0  0  0  0
 18 19  1  0  0  0  0
 18 20  1  0  0  0  0
 13 21  1  0  0  0  0
 21 22  1  0  0  0  0
M  END
> <VConfSearch Rank>
674

> <Conf_Id>
144

> <Delta U+W>
-3.291

> <U+W>
3.132

> <U>
5.411

> <W>
-2.279

> <W(PB)>
-4.300

> <W(SA)>
2.021

> <Valence>
11.909

> <Coulomb>
-8.733

> <VdW>
2.236

> <VdW6>
-8.936

> <VdW12>
11.172

> <Bond>
0.223

> <Angle>
2.457

> <Pdih>
9.228

> <Idih>
0.000

> <Tether>
0.000

$$$$
VeraChem MOL file


 22 22  0  0  0  0  0  0  0  0999 V2000     
   20.3972   21.1705   22.2320 C   0  0  0  0  0  0  0  0  0  0  0  0
   20.4032   22.2125   21.8840 H   0  0  0  0  0  0  0  0  0  0  0  0
   21.4153   20.9633   22.5886 H   0  0  0  0  0  0  0  0  0  0  0  0
   20.0399   20.2665   21.0290 C   0  0  0  0  0  0  0  0  0  0  0  0
   18.9494   20.2465   20.8979 H   0  0  0  0  0  0  0  0  0  0  0  0
   20.4367   20.7225   20.1117 H   0  0  0  0  0  0  0  0  0  0  0  0
   20.5795   18.8182   21.1133 C   0  0  0  0  0  0  0  0  0  0  0  0
   21.6191   18.8029   20.7584 H   0  0  0  0  0  0  0  0  0  0  0  0
   20.0131   18.2000   20.4033 H   0  0  0  0  0  0  0  0  0  0  0  0
   20.5368   18.1496   22.5095 C   0  0  0  0  0  0  0  0  0  0  0  0
   20.6237   17.0642   22.3649 H   0  0  0  0  0  0  0  0  0  0  0  0
   21.4274   18.4462   23.0786 H   0  0  0  0  0  0  0  0  0  0  0  0
   19.2722   18.4592   23.3417 C   0  0  0  0  0  0  0  0  0  0  0  0
   18.4057   18.5566   22.6723 H   0  0  0  0  0  0  0  0  0  0  0  0
   19.4201   19.7435   24.1888 C   0  0  0  0  0  0  0  0  0  0  0  0
   18.6127   19.7690   24.9328 H   0  0  0  0  0  0  0  0  0  0  0  0
   20.3570   19.7002   24.7593 H   0  0  0  0  0  0  0  0  0  0  0  0
   19.3743   21.0670   23.3887 C   0  0  0  0  0  0  0  0  0  0  0  0
   18.3604   21.2187   22.9938 H   0  0  0  0  0  0  0  0  0  0  0  0
   19.5504   21.8964   24.0872 H   0  0  0  0  0  0  0  0  0  0  0  0
   19.0457   17.3738   24.2309 O   0  0  0  0  0  0  0  0  0  0  0  0
   19.8360   17.3183   24.8066 H   0  0  0  0  0  0  0  0  0  0  0  0
  1  2  1  0  0  0  0
  1  3  1  0  0  0  0
  1  4  1  0  0  0  0
  4  5  1  0  0  0  0
  4  6  1  0  0  0  0
  4  7  1  0  0  0  0
  7  8  1  0  0  0  0
  7  9  1  0  0  0  0
  7 10  1  0  0  0  0
 10 11  1  0  0  0  0
 10 12  1  0  0  0  0
 10 13  1  0  0  0  0
 13 14  1  0  0  0  0
 13 15  1  0  0  0  0
 15 16  1  0  0  0  0
 15 17  1  0  0  0  0
  1 18  1  0  0  0  0
 15 18  1  0  0  0  0
 18 19  1  0  0  0  0
 18 20  1  0  0  0  0
 13 21  1  0  0  0  0
 21 22  1  0  0  0  0
M  END
> <VConfSearch Rank>
675

> <Conf_Id>
76

> <Delta U+W>
-3.175

> <U+W>
3.248

> <U>
5.336

> <W>
-2.088

> <W(PB)>
-4.098

> <W(SA)>
2.010

> <Valence>
12.390

> <Coulomb>
-9.270

> <VdW>
2.216

> <VdW6>
-8.967

> <VdW12>
11.183

> <Bond>
0.218

> <Angle>
2.426

> <Pdih>
9.745

> <Idih>
0.000

> <Tether>
0.000

$$$$
VeraChem MOL file


 22 22  0  0  0  0  0  0  0  0999 V2000     
   20.6143   17.8196   22.2415 C   0  0  0  0  0  0  0  0  0  0  0  0
   20.4125   17.2795   21.3065 H   0  0  0  0  0  0  0  0  0  0  0  0
   21.2711   17.1637   22.8290 H   0  0  0  0  0  0  0  0  0  0  0  0
   19.2754   17.9956   22.9974 C   0  0  0  0  0  0  0  0  0  0  0  0
   18.4670   18.1720   22.2750 H   0  0  0  0  0  0  0  0  0  0  0  0
   19.0319   17.0408   23.4830 H   0  0  0  0  0  0  0  0  0  0  0  0
   19.2676   19.1170   24.0622 C   0  0  0  0  0  0  0  0  0  0  0  0
   20.2326   19.1707   24.5844 H   0  0  0  0  0  0  0  0  0  0  0  0
   18.5221   18.8571   24.8257 H   0  0  0  0  0  0  0  0  0  0  0  0
   18.8807   20.4985   23.4758 C   0  0  0  0  0  0  0  0  0  0  0  0
   17.9516   20.3987   22.9003 H   0  0  0  0  0  0  0  0  0  0  0  0
   18.6420   21.1767   24.3056 H   0  0  0  0  0  0  0  0  0  0  0  0
   19.9438   21.1863   22.5894 C   0  0  0  0  0  0  0  0  0  0  0  0
   19.4518   22.0477   22.1150 H   0  0  0  0  0  0  0  0  0  0  0  0
   20.5215   20.3078   21.4514 C   0  0  0  0  0  0  0  0  0  0  0  0
   19.7072   19.9473   20.8097 H   0  0  0  0  0  0  0  0  0  0  0  0
   21.1365   20.9553   20.8131 H   0  0  0  0  0  0  0  0  0  0  0  0
   21.3960   19.1153   21.9186 C   0  0  0  0  0  0  0  0  0  0  0  0
   22.1251   18.8816   21.1311 H   0  0  0  0  0  0  0  0  0  0  0  0
   21.9948   19.4065   22.7917 H   0  0  0  0  0  0  0  0  0  0  0  0
   20.9973   21.6755   23.4132 O   0  0  0  0  0  0  0  0  0  0  0  0
   21.6693   22.0547   22.8108 H   0  0  0  0  0  0  0  0  0  0  0  0
  1  2  1  0  0  0  0
  1  3  1  0  0  0  0
  1  4  1  0  0  0  0
  4  5  1  0  0  0  0
  4  6  1  0  0  0  0
  4  7  1  0  0  0  0
  7  8  1  0  0  0  0
  7  9  1  0  0  0  0
  7 10  1  0  0  0  0
 10 11  1  0  0  0  0
 10 12  1  0  0  0  0
 10 13  1  0  0  0  0
 13 14  1  0  0  0  0
 13 15  1  0  0  0  0
 15 16  1  0  0  0  0
 15 17  1  0  0  0  0
  1 18  1  0  0  0  0
 15 18  1  0  0  0  0
 18 19  1  0  0  0  0
 18 20  1  0  0  0  0
 13 21  1  0  0  0  0
 21 22  1  0  0  0  0
M  END
> <VConfSearch Rank>
676

> <Conf_Id>
95

> <Delta U+W>
-2.289

> <U+W>
4.134

> <U>
6.373

> <W>
-2.240

> <W(PB)>
-4.254

> <W(SA)>
2.015

> <Valence>
12.093

> <Coulomb>
-8.058

> <VdW>
2.339

> <VdW6>
-9.683

> <VdW12>
12.022

> <Bond>
0.268

> <Angle>
3.005

> <Pdih>
8.820

> <Idih>
0.000

> <Tether>
0.000

$$$$
VeraChem MOL file


 22 22  0  0  0  0  0  0  0  0999 V2000     
   18.3690   20.5010   22.4174 C   0  0  0  0  0  0  0  0  0  0  0  0
   18.0282   21.0273   21.5154 H   0  0  0  0  0  0  0  0  0  0  0  0
   17.5268   20.5406   23.1216 H   0  0  0  0  0  0  0  0  0  0  0  0
   19.5597   21.2875   23.0158 C   0  0  0  0  0  0  0  0  0  0  0  0
   20.1669   21.7071   22.2023 H   0  0  0  0  0  0  0  0  0  0  0  0
   19.1561   22.1540   23.5573 H   0  0  0  0  0  0  0  0  0  0  0  0
   20.4671   20.4770   23.9703 C   0  0  0  0  0  0  0  0  0  0  0  0
   19.8740   19.7847   24.5832 H   0  0  0  0  0  0  0  0  0  0  0  0
   20.9367   21.1797   24.6718 H   0  0  0  0  0  0  0  0  0  0  0  0
   21.5994   19.7266   23.2246 C   0  0  0  0  0  0  0  0  0  0  0  0
   22.1164   20.4284   22.5575 H   0  0  0  0  0  0  0  0  0  0  0  0
   22.3540   19.4123   23.9573 H   0  0  0  0  0  0  0  0  0  0  0  0
   21.1718   18.4882   22.4041 C   0  0  0  0  0  0  0  0  0  0  0  0
   22.0449   18.1850   21.8084 H   0  0  0  0  0  0  0  0  0  0  0  0
   20.0059   18.7270   21.4121 C   0  0  0  0  0  0  0  0  0  0  0  0
   20.2675   19.5317   20.7132 H   0  0  0  0  0  0  0  0  0  0  0  0
   19.9084   17.8198   20.8019 H   0  0  0  0  0  0  0  0  0  0  0  0
   18.6306   19.0165   22.0681 C   0  0  0  0  0  0  0  0  0  0  0  0
   17.8373   18.6860   21.3842 H   0  0  0  0  0  0  0  0  0  0  0  0
   18.5104   18.4016   22.9698 H   0  0  0  0  0  0  0  0  0  0  0  0
   20.8486   17.4222   23.2918 O   0  0  0  0  0  0  0  0  0  0  0  0
   21.6066   17.3257   23.9035 H   0  0  0  0  0  0  0  0  0  0  0  0
  1  2  1  0  0  0  0
  1  3  1  0  0  0  0
  1  4  1  0  0  0  0
  4  5  1  0  0  0  0
  4  6  1  0  0  0  0
  4  7  1  0  0  0  0
  7  8  1  0  0  0  0
  7  9  1  0  0  0  0
  7 10  1  0  0  0  0
 10 11  1  0  0  0  0
 10 12  1  0  0  0  0
 10 13  1  0  0  0  0
 13 14  1  0  0  0  0
 13 15  1  0  0  0  0
 15 16  1  0  0  0  0
 15 17  1  0  0  0  0
  1 18  1  0  0  0  0
 15 18  1  0  0  0  0
 18 19  1  0  0  0  0
 18 20  1  0  0  0  0
 13 21  1  0  0  0  0
 21 22  1  0  0  0  0
M  END
> <VConfSearch Rank>
677

> <Conf_Id>
41

> <Delta U+W>
-2.114

> <U+W>
4.310

> <U>
6.598

> <W>
-2.289

> <W(PB)>
-4.294

> <W(SA)>
2.005

> <Valence>
12.082

> <Coulomb>
-7.801

> <VdW>
2.317

> <VdW6>
-9.658

> <VdW12>
11.975

> <Bond>
0.267

> <Angle>
3.051

> <Pdih>
8.764

> <Idih>
0.000

> <Tether>
0.000

$$$$
VeraChem MOL file


 22 22  0  0  0  0  0  0  0  0999 V2000     
   18.9446   18.3259   22.6413 C   0  0  0  0  0  0  0  0  0  0  0  0
   18.0395   17.7191   22.5028 H   0  0  0  0  0  0  0  0  0  0  0  0
   19.7852   17.6197   22.6849 H   0  0  0  0  0  0  0  0  0  0  0  0
   18.8030   19.0899   23.9769 C   0  0  0  0  0  0  0  0  0  0  0  0
   17.9988   19.8332   23.8917 H   0  0  0  0  0  0  0  0  0  0  0  0
   18.4788   18.3830   24.7527 H   0  0  0  0  0  0  0  0  0  0  0  0
   20.0951   19.7822   24.4632 C   0  0  0  0  0  0  0  0  0  0  0  0
   20.8318   19.0203   24.7509 H   0  0  0  0  0  0  0  0  0  0  0  0
   19.8597   20.3272   25.3871 H   0  0  0  0  0  0  0  0  0  0  0  0
   20.7285   20.7797   23.4557 C   0  0  0  0  0  0  0  0  0  0  0  0
   19.9724   21.4950   23.1080 H   0  0  0  0  0  0  0  0  0  0  0  0
   21.4715   21.3756   24.0011 H   0  0  0  0  0  0  0  0  0  0  0  0
   21.4536   20.1478   22.2396 C   0  0  0  0  0  0  0  0  0  0  0  0
   22.1005   20.9301   21.8168 H   0  0  0  0  0  0  0  0  0  0  0  0
   20.5407   19.6704   21.0804 C   0  0  0  0  0  0  0  0  0  0  0  0
   20.4932   20.4738   20.3338 H   0  0  0  0  0  0  0  0  0  0  0  0
   21.0244   18.8288   20.5674 H   0  0  0  0  0  0  0  0  0  0  0  0
   19.0852   19.2692   21.4262 C   0  0  0  0  0  0  0  0  0  0  0  0
   18.4771   20.1703   21.5828 H   0  0  0  0  0  0  0  0  0  0  0  0
   18.6553   18.7734   20.5452 H   0  0  0  0  0  0  0  0  0  0  0  0
   22.2930   19.0761   22.6615 O   0  0  0  0  0  0  0  0  0  0  0  0
   22.7518   18.7450   21.8629 H   0  0  0  0  0  0  0  0  0  0  0  0
  1  2  1  0  0  0  0
  1  3  1  0  0  0  0
  1  4  1  0  0  0  0
  4  5  1  0  0  0  0
  4  6  1  0  0  0  0
  4  7  1  0  0  0  0
  7  8  1  0  0  0  0
  7  9  1  0  0  0  0
  7 10  1  0  0  0  0
 10 11  1  0  0  0  0
 10 12  1  0  0  0  0
 10 13  1  0  0  0  0
 13 14  1  0  0  0  0
 13 15  1  0  0  0  0
 15 16  1  0  0  0  0
 15 17  1  0  0  0  0
  1 18  1  0  0  0  0
 15 18  1  0  0  0  0
 18 19  1  0  0  0  0
 18 20  1  0  0  0  0
 13 21  1  0  0  0  0
 21 22  1  0  0  0  0
M  END
> <VConfSearch Rank>
678

> <Conf_Id>
104

> <Delta U+W>
-1.172

> <U+W>
5.252

> <U>
7.482

> <W>
-2.230

> <W(PB)>
-4.220

> <W(SA)>
1.990

> <Valence>
12.309

> <Coulomb>
-7.084

> <VdW>
2.258

> <VdW6>
-9.770

> <VdW12>
12.028

> <Bond>
0.284

> <Angle>
3.491

> <Pdih>
8.535

> <Idih>
0.000

> <Tether>
0.000

$$$$
VeraChem MOL file


 22 22  0  0  0  0  0  0  0  0999 V2000     
   20.7350   18.7345   23.9049 C   0  0  0  0  0  0  0  0  0  0  0  0
   21.0361   17.9038   23.2524 H   0  0  0  0  0  0  0  0  0  0  0  0
   21.0441   18.4489   24.9197 H   0  0  0  0  0  0  0  0  0  0  0  0
   19.1985   18.9044   23.9090 C   0  0  0  0  0  0  0  0  0  0  0  0
   18.7644   18.1491   24.5786 H   0  0  0  0  0  0  0  0  0  0  0  0
   18.9406   19.8694   24.3645 H   0  0  0  0  0  0  0  0  0  0  0  0
   18.5041   18.7676   22.5303 C   0  0  0  0  0  0  0  0  0  0  0  0
   17.5588   19.3269   22.5601 H   0  0  0  0  0  0  0  0  0  0  0  0
   18.2163   17.7168   22.3890 H   0  0  0  0  0  0  0  0  0  0  0  0
   19.3144   19.2028   21.2792 C   0  0  0  0  0  0  0  0  0  0  0  0
   20.0225   18.4066   21.0155 H   0  0  0  0  0  0  0  0  0  0  0  0
   18.6207   19.2636   20.4306 H   0  0  0  0  0  0  0  0  0  0  0  0
   20.0829   20.5413   21.3682 C   0  0  0  0  0  0  0  0  0  0  0  0
   20.2542   20.8890   20.3393 H   0  0  0  0  0  0  0  0  0  0  0  0
   21.4731   20.3925   22.0268 C   0  0  0  0  0  0  0  0  0  0  0  0
   22.0447   19.6355   21.4741 H   0  0  0  0  0  0  0  0  0  0  0  0
   22.0197   21.3345   21.8886 H   0  0  0  0  0  0  0  0  0  0  0  0
   21.4897   20.0330   23.5332 C   0  0  0  0  0  0  0  0  0  0  0  0
   22.5384   19.9225   23.8409 H   0  0  0  0  0  0  0  0  0  0  0  0
   21.0969   20.8736   24.1210 H   0  0  0  0  0  0  0  0  0  0  0  0
   19.3145   21.5124   22.0615 O   0  0  0  0  0  0  0  0  0  0  0  0
   19.1341   21.0988   22.9291 H   0  0  0  0  0  0  0  0  0  0  0  0
  1  2  1  0  0  0  0
  1  3  1  0  0  0  0
  1  4  1  0  0  0  0
  4  5  1  0  0  0  0
  4  6  1  0  0  0  0
  4  7  1  0  0  0  0
  7  8  1  0  0  0  0
  7  9  1  0  0  0  0
  7 10  1  0  0  0  0
 10 11  1  0  0  0  0
 10 12  1  0  0  0  0
 10 13  1  0  0  0  0
 13 14  1  0  0  0  0
 13 15  1  0  0  0  0
 15 16  1  0  0  0  0
 15 17  1  0  0  0  0
  1 18  1  0  0  0  0
 15 18  1  0  0  0  0
 18 19  1  0  0  0  0
 18 20  1  0  0  0  0
 13 21  1  0  0  0  0
 21 22  1  0  0  0  0
M  END
> <VConfSearch Rank>
679

> <Conf_Id>
99

> <Delta U+W>
-3.852

> <U+W>
2.572

> <U>
3.922

> <W>
-1.350

> <W(PB)>
-3.345

> <W(SA)>
1.995

> <Valence>
12.571

> <Coulomb>
-10.581

> <VdW>
1.932

> <VdW6>
-10.483

> <VdW12>
12.415

> <Bond>
0.268

> <Angle>
3.728

> <Pdih>
8.575

> <Idih>
0.000

> <Tether>
0.000

$$$$
VeraChem MOL file


 22 22  0  0  0  0  0  0  0  0999 V2000     
   18.5626   19.9934   23.2534 C   0  0  0  0  0  0  0  0  0  0  0  0
   17.5082   20.2625   23.1015 H   0  0  0  0  0  0  0  0  0  0  0  0
   18.6902   19.9527   24.3434 H   0  0  0  0  0  0  0  0  0  0  0  0
   19.4374   21.1329   22.6531 C   0  0  0  0  0  0  0  0  0  0  0  0
   18.7615   21.8953   22.2416 H   0  0  0  0  0  0  0  0  0  0  0  0
   19.9903   21.6460   23.4513 H   0  0  0  0  0  0  0  0  0  0  0  0
   20.4185   20.7148   21.5282 C   0  0  0  0  0  0  0  0  0  0  0  0
   20.8236   21.6252   21.0658 H   0  0  0  0  0  0  0  0  0  0  0  0
   19.8662   20.2180   20.7209 H   0  0  0  0  0  0  0  0  0  0  0  0
   21.6184   19.8294   21.9651 C   0  0  0  0  0  0  0  0  0  0  0  0
   21.9880   19.2926   21.0819 H   0  0  0  0  0  0  0  0  0  0  0  0
   22.4425   20.4881   22.2701 H   0  0  0  0  0  0  0  0  0  0  0  0
   21.3951   18.8040   23.1039 C   0  0  0  0  0  0  0  0  0  0  0  0
   22.2682   18.1358   23.1077 H   0  0  0  0  0  0  0  0  0  0  0  0
   20.1407   17.9044   22.9796 C   0  0  0  0  0  0  0  0  0  0  0  0
   20.3357   17.1400   22.2165 H   0  0  0  0  0  0  0  0  0  0  0  0
   20.0350   17.3522   23.9229 H   0  0  0  0  0  0  0  0  0  0  0  0
   18.7809   18.5814   22.6522 C   0  0  0  0  0  0  0  0  0  0  0  0
   18.6363   18.6153   21.5652 H   0  0  0  0  0  0  0  0  0  0  0  0
   17.9811   17.9224   23.0166 H   0  0  0  0  0  0  0  0  0  0  0  0
   21.3769   19.4763   24.3532 O   0  0  0  0  0  0  0  0  0  0  0  0
   20.5886   20.0532   24.2998 H   0  0  0  0  0  0  0  0  0  0  0  0
  1  2  1  0  0  0  0
  1  3  1  0  0  0  0
  1  4  1  0  0  0  0
  4  5  1  0  0  0  0
  4  6  1  0  0  0  0
  4  7  1  0  0  0  0
  7  8  1  0  0  0  0
  7  9  1  0  0  0  0
  7 10  1  0  0  0  0
 10 11  1  0  0  0  0
 10 12  1  0  0  0  0
 10 13  1  0  0  0  0
 13 14  1  0  0  0  0
 13 15  1  0  0  0  0
 15 16  1  0  0  0  0
 15 17  1  0  0  0  0
  1 18  1  0  0  0  0
 15 18  1  0  0  0  0
 18 19  1  0  0  0  0
 18 20  1  0  0  0  0
 13 21  1  0  0  0  0
 21 22  1  0  0  0  0
M  END
> <VConfSearch Rank>
680

> <Conf_Id>
98

> <Delta U+W>
0.930

> <U+W>
7.353

> <U>
8.455

> <W>
-1.102

> <W(PB)>
-3.101

> <W(SA)>
2.000

> <Valence>
15.601

> <Coulomb>
-10.573

> <VdW>
3.427

> <VdW6>
-11.360

> <VdW12>
14.787

> <Bond>
0.471

> <Angle>
5.445

> <Pdih>
9.685

> <Idih>
0.000

> <Tether>
0.000

$$$$
VeraChem MOL file


 22 22  0  0  0  0  0  0  0  0999 V2000     
   21.0088   18.3594   21.8880 C   0  0  0  0  0  0  0  0  0  0  0  0
   21.1615   19.0899   21.0831 H   0  0  0  0  0  0  0  0  0  0  0  0
   21.6329   17.4981   21.6134 H   0  0  0  0  0  0  0  0  0  0  0  0
   19.5265   17.9071   21.9108 C   0  0  0  0  0  0  0  0  0  0  0  0
   19.2997   17.4679   20.9297 H   0  0  0  0  0  0  0  0  0  0  0  0
   19.4017   17.0927   22.6373 H   0  0  0  0  0  0  0  0  0  0  0  0
   18.4752   19.0144   22.1995 C   0  0  0  0  0  0  0  0  0  0  0  0
   18.1183   18.9338   23.2345 H   0  0  0  0  0  0  0  0  0  0  0  0
   17.5905   18.8167   21.5792 H   0  0  0  0  0  0  0  0  0  0  0  0
   18.9572   20.4645   21.9300 C   0  0  0  0  0  0  0  0  0  0  0  0
   19.3715   20.5234   20.9158 H   0  0  0  0  0  0  0  0  0  0  0  0
   18.0782   21.1227   21.9137 H   0  0  0  0  0  0  0  0  0  0  0  0
   19.9954   21.0349   22.9403 C   0  0  0  0  0  0  0  0  0  0  0  0
   20.7969   21.5202   22.3648 H   0  0  0  0  0  0  0  0  0  0  0  0
   20.6444   20.0047   23.8984 C   0  0  0  0  0  0  0  0  0  0  0  0
   21.2576   20.5409   24.6343 H   0  0  0  0  0  0  0  0  0  0  0  0
   19.8649   19.5055   24.4863 H   0  0  0  0  0  0  0  0  0  0  0  0
   21.5410   18.9394   23.2195 C   0  0  0  0  0  0  0  0  0  0  0  0
   22.5310   19.3763   23.0303 H   0  0  0  0  0  0  0  0  0  0  0  0
   21.7050   18.1181   23.9303 H   0  0  0  0  0  0  0  0  0  0  0  0
   19.3502   22.0166   23.7435 O   0  0  0  0  0  0  0  0  0  0  0  0
   20.0369   22.3988   24.3288 H   0  0  0  0  0  0  0  0  0  0  0  0
  1  2  1  0  0  0  0
  1  3  1  0  0  0  0
  1  4  1  0  0  0  0
  4  5  1  0  0  0  0
  4  6  1  0  0  0  0
  4  7  1  0  0  0  0
  7  8  1  0  0  0  0
  7  9  1  0  0  0  0
  7 10  1  0  0  0  0
 10 11  1  0  0  0  0
 10 12  1  0  0  0  0
 10 13  1  0  0  0  0
 13 14  1  0  0  0  0
 13 15  1  0  0  0  0
 15 16  1  0  0  0  0
 15 17  1  0  0  0  0
  1 18  1  0  0  0  0
 15 18  1  0  0  0  0
 18 19  1  0  0  0  0
 18 20  1  0  0  0  0
 13 21  1  0  0  0  0
 21 22  1  0  0  0  0
M  END
> <VConfSearch Rank>
681

> <Conf_Id>
141

> <Delta U+W>
0.000

> <U+W>
6.423

> <U>
8.781

> <W>
-2.358

> <W(PB)>
-4.373

> <W(SA)>
2.015

> <Valence>
13.328

> <Coulomb>
-8.387

> <VdW>
3.840

> <VdW6>
-9.744

> <VdW12>
13.584

> <Bond>
0.436

> <Angle>
3.478

> <Pdih>
9.415

> <Idih>
0.000

> <Tether>
0.000

$$$$
VeraChem MOL file


 22 22  0  0  0  0  0  0  0  0999 V2000     
   19.9547   17.9811   22.0240 C   0  0  0  0  0  0  0  0  0  0  0  0
   20.6866   18.2885   21.2648 H   0  0  0  0  0  0  0  0  0  0  0  0
   19.7900   16.9060   21.8693 H   0  0  0  0  0  0  0  0  0  0  0  0
   18.6004   18.6992   21.8100 C   0  0  0  0  0  0  0  0  0  0  0  0
   18.1462   18.3210   20.8840 H   0  0  0  0  0  0  0  0  0  0  0  0
   17.9089   18.4205   22.6169 H   0  0  0  0  0  0  0  0  0  0  0  0
   18.6792   20.2403   21.7138 C   0  0  0  0  0  0  0  0  0  0  0  0
   17.6558   20.6310   21.6318 H   0  0  0  0  0  0  0  0  0  0  0  0
   19.1833   20.5222   20.7793 H   0  0  0  0  0  0  0  0  0  0  0  0
   19.3793   20.9352   22.9072 C   0  0  0  0  0  0  0  0  0  0  0  0
   19.1675   22.0102   22.8362 H   0  0  0  0  0  0  0  0  0  0  0  0
   18.9459   20.6007   23.8587 H   0  0  0  0  0  0  0  0  0  0  0  0
   20.9100   20.7243   22.9059 C   0  0  0  0  0  0  0  0  0  0  0  0
   21.2484   20.6651   21.8615 H   0  0  0  0  0  0  0  0  0  0  0  0
   21.3832   19.4501   23.6420 C   0  0  0  0  0  0  0  0  0  0  0  0
   22.4069   19.2361   23.3090 H   0  0  0  0  0  0  0  0  0  0  0  0
   21.4541   19.6573   24.7182 H   0  0  0  0  0  0  0  0  0  0  0  0
   20.5212   18.1773   23.4497 C   0  0  0  0  0  0  0  0  0  0  0  0
   21.1383   17.3068   23.7113 H   0  0  0  0  0  0  0  0  0  0  0  0
   19.6951   18.1801   24.1737 H   0  0  0  0  0  0  0  0  0  0  0  0
   21.5278   21.8460   23.5251 O   0  0  0  0  0  0  0  0  0  0  0  0
   21.2762   22.6333   22.9983 H   0  0  0  0  0  0  0  0  0  0  0  0
  1  2  1  0  0  0  0
  1  3  1  0  0  0  0
  1  4  1  0  0  0  0
  4  5  1  0  0  0  0
  4  6  1  0  0  0  0
  4  7  1  0  0  0  0
  7  8  1  0  0  0  0
  7  9  1  0  0  0  0
  7 10  1  0  0  0  0
 10 11  1  0  0  0  0
 10 12  1  0  0  0  0
 10 13  1  0  0  0  0
 13 14  1  0  0  0  0
 13 15  1  0  0  0  0
 15 16  1  0  0  0  0
 15 17  1  0  0  0  0
  1 18  1  0  0  0  0
 15 18  1  0  0  0  0
 18 19  1  0  0  0  0
 18 20  1  0  0  0  0
 13 21  1  0  0  0  0
 21 22  1  0  0  0  0
M  END
> <VConfSearch Rank>
682

> <Conf_Id>
144

> <Delta U+W>
-3.291

> <U+W>
3.132

> <U>
5.411

> <W>
-2.279

> <W(PB)>
-4.300

> <W(SA)>
2.021

> <Valence>
11.909

> <Coulomb>
-8.733

> <VdW>
2.236

> <VdW6>
-8.936

> <VdW12>
11.172

> <Bond>
0.223

> <Angle>
2.457

> <Pdih>
9.228

> <Idih>
0.000

> <Tether>
0.000

$$$$
VeraChem MOL file


 22 22  0  0  0  0  0  0  0  0999 V2000     
   18.3464   19.6302   23.3301 C   0  0  0  0  0  0  0  0  0  0  0  0
   17.2663   19.7602   23.4835 H   0  0  0  0  0  0  0  0  0  0  0  0
   18.7536   19.3047   24.2970 H   0  0  0  0  0  0  0  0  0  0  0  0
   18.9385   20.9974   22.9149 C   0  0  0  0  0  0  0  0  0  0  0  0
   18.7869   21.1494   21.8376 H   0  0  0  0  0  0  0  0  0  0  0  0
   18.3667   21.7964   23.4066 H   0  0  0  0  0  0  0  0  0  0  0  0
   20.4334   21.1980   23.2625 C   0  0  0  0  0  0  0  0  0  0  0  0
   20.5162   21.5299   24.3064 H   0  0  0  0  0  0  0  0  0  0  0  0
   20.8178   22.0284   22.6543 H   0  0  0  0  0  0  0  0  0  0  0  0
   21.3536   19.9669   23.0735 C   0  0  0  0  0  0  0  0  0  0  0  0
   22.3905   20.3264   23.0286 H   0  0  0  0  0  0  0  0  0  0  0  0
   21.2967   19.3337   23.9684 H   0  0  0  0  0  0  0  0  0  0  0  0
   21.0496   19.1121   21.8227 C   0  0  0  0  0  0  0  0  0  0  0  0
   20.7071   19.7634   21.0060 H   0  0  0  0  0  0  0  0  0  0  0  0
   19.9898   18.0203   22.0944 C   0  0  0  0  0  0  0  0  0  0  0  0
   20.0051   17.3012   21.2645 H   0  0  0  0  0  0  0  0  0  0  0  0
   20.2695   17.4536   22.9920 H   0  0  0  0  0  0  0  0  0  0  0  0
   18.5400   18.5369   22.2521 C   0  0  0  0  0  0  0  0  0  0  0  0
   18.1796   18.9112   21.2841 H   0  0  0  0  0  0  0  0  0  0  0  0
   17.8963   17.6821   22.5007 H   0  0  0  0  0  0  0  0  0  0  0  0
   22.2497   18.4650   21.4213 O   0  0  0  0  0  0  0  0  0  0  0  0
   22.5227   17.8982   22.1719 H   0  0  0  0  0  0  0  0  0  0  0  0
  1  2  1  0  0  0  0
  1  3  1  0  0  0  0
  1  4  1  0  0  0  0
  4  5  1  0  0  0  0
  4  6  1  0  0  0  0
  4  7  1  0  0  0  0
  7  8  1  0  0  0  0
  7  9  1  0  0  0  0
  7 10  1  0  0  0  0
 10 11  1  0  0  0  0
 10 12  1  0  0  0  0
 10 13  1  0  0  0  0
 13 14  1  0  0  0  0
 13 15  1  0  0  0  0
 15 16  1  0  0  0  0
 15 17  1  0  0  0  0
  1 18  1  0  0  0  0
 15 18  1  0  0  0  0
 18 19  1  0  0  0  0
 18 20  1  0  0  0  0
 13 21  1  0  0  0  0
 21 22  1  0  0  0  0
M  END
> <VConfSearch Rank>
683

> <Conf_Id>
76

> <Delta U+W>
-3.175

> <U+W>
3.248

> <U>
5.336

> <W>
-2.088

> <W(PB)>
-4.098

> <W(SA)>
2.010

> <Valence>
12.390

> <Coulomb>
-9.270

> <VdW>
2.216

> <VdW6>
-8.967

> <VdW12>
11.183

> <Bond>
0.218

> <Angle>
2.426

> <Pdih>
9.745

> <Idih>
0.000

> <Tether>
0.000

$$$$
VeraChem MOL file


 22 22  0  0  0  0  0  0  0  0999 V2000     
   21.7112   18.6549   22.6193 C   0  0  0  0  0  0  0  0  0  0  0  0
   22.3778   18.5532   21.7521 H   0  0  0  0  0  0  0  0  0  0  0  0
   22.2431   18.1895   23.4603 H   0  0  0  0  0  0  0  0  0  0  0  0
   20.4207   17.8497   22.3349 C   0  0  0  0  0  0  0  0  0  0  0  0
   20.1634   17.9335   21.2703 H   0  0  0  0  0  0  0  0  0  0  0  0
   20.6406   16.7863   22.5009 H   0  0  0  0  0  0  0  0  0  0  0  0
   19.1976   18.2495   23.1927 C   0  0  0  0  0  0  0  0  0  0  0  0
   19.5015   18.5031   24.2175 H   0  0  0  0  0  0  0  0  0  0  0  0
   18.5399   17.3740   23.2778 H   0  0  0  0  0  0  0  0  0  0  0  0
   18.3725   19.3999   22.5619 C   0  0  0  0  0  0  0  0  0  0  0  0
   18.1452   19.1503   21.5176 H   0  0  0  0  0  0  0  0  0  0  0  0
   17.4009   19.4537   23.0703 H   0  0  0  0  0  0  0  0  0  0  0  0
   19.0133   20.8057   22.6094 C   0  0  0  0  0  0  0  0  0  0  0  0
   18.3982   21.4562   21.9710 H   0  0  0  0  0  0  0  0  0  0  0  0
   20.4660   20.8863   22.0768 C   0  0  0  0  0  0  0  0  0  0  0  0
   20.5048   20.5159   21.0442 H   0  0  0  0  0  0  0  0  0  0  0  0
   20.7396   21.9478   22.0208 H   0  0  0  0  0  0  0  0  0  0  0  0
   21.5265   20.1569   22.9419 C   0  0  0  0  0  0  0  0  0  0  0  0
   22.4968   20.6529   22.8044 H   0  0  0  0  0  0  0  0  0  0  0  0
   21.2888   20.2739   24.0074 H   0  0  0  0  0  0  0  0  0  0  0  0
   18.9518   21.3053   23.9416 O   0  0  0  0  0  0  0  0  0  0  0  0
   19.4120   22.1692   23.9370 H   0  0  0  0  0  0  0  0  0  0  0  0
  1  2  1  0  0  0  0
  1  3  1  0  0  0  0
  1  4  1  0  0  0  0
  4  5  1  0  0  0  0
  4  6  1  0  0  0  0
  4  7  1  0  0  0  0
  7  8  1  0  0  0  0
  7  9  1  0  0  0  0
  7 10  1  0  0  0  0
 10 11  1  0  0  0  0
 10 12  1  0  0  0  0
 10 13  1  0  0  0  0
 13 14  1  0  0  0  0
 13 15  1  0  0  0  0
 15 16  1  0  0  0  0
 15 17  1  0  0  0  0
  1 18  1  0  0  0  0
 15 18  1  0  0  0  0
 18 19  1  0  0  0  0
 18 20  1  0  0  0  0
 13 21  1  0  0  0  0
 21 22  1  0  0  0  0
M  END
> <VConfSearch Rank>
684

> <Conf_Id>
95

> <Delta U+W>
-2.289

> <U+W>
4.134

> <U>
6.373

> <W>
-2.240

> <W(PB)>
-4.254

> <W(SA)>
2.015

> <Valence>
12.093

> <Coulomb>
-8.058

> <VdW>
2.339

> <VdW6>
-9.683

> <VdW12>
12.022

> <Bond>
0.268

> <Angle>
3.005

> <Pdih>
8.820

> <Idih>
0.000

> <Tether>
0.000

$$$$
VeraChem MOL file


 22 22  0  0  0  0  0  0  0  0999 V2000     
   21.5250   20.8025   22.4167 C   0  0  0  0  0  0  0  0  0  0  0  0
   22.1579   21.2909   23.1701 H   0  0  0  0  0  0  0  0  0  0  0  0
   21.9414   21.0950   21.4430 H   0  0  0  0  0  0  0  0  0  0  0  0
   20.0933   21.3760   22.5419 C   0  0  0  0  0  0  0  0  0  0  0  0
   19.8673   21.5680   23.5996 H   0  0  0  0  0  0  0  0  0  0  0  0
   20.0786   22.3608   22.0554 H   0  0  0  0  0  0  0  0  0  0  0  0
   18.9790   20.4963   21.9288 C   0  0  0  0  0  0  0  0  0  0  0  0
   19.3227   20.0151   21.0030 H   0  0  0  0  0  0  0  0  0  0  0  0
   18.1471   21.1529   21.6405 H   0  0  0  0  0  0  0  0  0  0  0  0
   18.4284   19.4472   22.9276 C   0  0  0  0  0  0  0  0  0  0  0  0
   18.1749   19.9481   23.8708 H   0  0  0  0  0  0  0  0  0  0  0  0
   17.4778   19.0586   22.5399 H   0  0  0  0  0  0  0  0  0  0  0  0
   19.3544   18.2488   23.2374 C   0  0  0  0  0  0  0  0  0  0  0  0
   18.8997   17.7051   24.0782 H   0  0  0  0  0  0  0  0  0  0  0  0
   20.7952   18.6242   23.6655 C   0  0  0  0  0  0  0  0  0  0  0  0
   20.7660   19.2761   24.5479 H   0  0  0  0  0  0  0  0  0  0  0  0
   21.2878   17.6993   23.9922 H   0  0  0  0  0  0  0  0  0  0  0  0
   21.6665   19.2679   22.5555 C   0  0  0  0  0  0  0  0  0  0  0  0
   22.7218   19.0437   22.7612 H   0  0  0  0  0  0  0  0  0  0  0  0
   21.4521   18.7917   21.5896 H   0  0  0  0  0  0  0  0  0  0  0  0
   19.3898   17.3761   22.1122 O   0  0  0  0  0  0  0  0  0  0  0  0
   18.4596   17.1856   21.8744 H   0  0  0  0  0  0  0  0  0  0  0  0
  1  2  1  0  0  0  0
  1  3  1  0  0  0  0
  1  4  1  0  0  0  0
  4  5  1  0  0  0  0
  4  6  1  0  0  0  0
  4  7  1  0  0  0  0
  7  8  1  0  0  0  0
  7  9  1  0  0  0  0
  7 10  1  0  0  0  0
 10 11  1  0  0  0  0
 10 12  1  0  0  0  0
 10 13  1  0  0  0  0
 13 14  1  0  0  0  0
 13 15  1  0  0  0  0
 15 16  1  0  0  0  0
 15 17  1  0  0  0  0
  1 18  1  0  0  0  0
 15 18  1  0  0  0  0
 18 19  1  0  0  0  0
 18 20  1  0  0  0  0
 13 21  1  0  0  0  0
 21 22  1  0  0  0  0
M  END
> <VConfSearch Rank>
685

> <Conf_Id>
41

> <Delta U+W>
-2.114

> <U+W>
4.310

> <U>
6.598

> <W>
-2.289

> <W(PB)>
-4.294

> <W(SA)>
2.005

> <Valence>
12.082

> <Coulomb>
-7.801

> <VdW>
2.317

> <VdW6>
-9.658

> <VdW12>
11.975

> <Bond>
0.267

> <Angle>
3.051

> <Pdih>
8.764

> <Idih>
0.000

> <Tether>
0.000

$$$$
VeraChem MOL file


 22 22  0  0  0  0  0  0  0  0999 V2000     
   18.9253   20.5534   22.0834 C   0  0  0  0  0  0  0  0  0  0  0  0
   18.3542   21.2929   21.5059 H   0  0  0  0  0  0  0  0  0  0  0  0
   18.1845   19.9090   22.5766 H   0  0  0  0  0  0  0  0  0  0  0  0
   19.7679   21.3171   23.1294 C   0  0  0  0  0  0  0  0  0  0  0  0
   20.5416   21.9063   22.6188 H   0  0  0  0  0  0  0  0  0  0  0  0
   19.1209   22.0453   23.6371 H   0  0  0  0  0  0  0  0  0  0  0  0
   20.4257   20.4235   24.2036 C   0  0  0  0  0  0  0  0  0  0  0  0
   19.6478   19.9985   24.8518 H   0  0  0  0  0  0  0  0  0  0  0  0
   21.0314   21.0677   24.8550 H   0  0  0  0  0  0  0  0  0  0  0  0
   21.3355   19.2917   23.6536 C   0  0  0  0  0  0  0  0  0  0  0  0
   22.0646   19.7051   22.9453 H   0  0  0  0  0  0  0  0  0  0  0  0
   21.9258   18.9027   24.4931 H   0  0  0  0  0  0  0  0  0  0  0  0
   20.6043   18.0845   23.0116 C   0  0  0  0  0  0  0  0  0  0  0  0
   21.3313   17.2604   22.9717 H   0  0  0  0  0  0  0  0  0  0  0  0
   20.1060   18.2905   21.5575 C   0  0  0  0  0  0  0  0  0  0  0  0
   20.8681   17.8872   20.8780 H   0  0  0  0  0  0  0  0  0  0  0  0
   19.2158   17.6692   21.3930 H   0  0  0  0  0  0  0  0  0  0  0  0
   19.7922   19.7365   21.0999 C   0  0  0  0  0  0  0  0  0  0  0  0
   20.7277   20.2740   20.8943 H   0  0  0  0  0  0  0  0  0  0  0  0
   19.2687   19.6775   20.1360 H   0  0  0  0  0  0  0  0  0  0  0  0
   19.5201   17.6632   23.8350 O   0  0  0  0  0  0  0  0  0  0  0  0
   19.1244   16.8795   23.4023 H   0  0  0  0  0  0  0  0  0  0  0  0
  1  2  1  0  0  0  0
  1  3  1  0  0  0  0
  1  4  1  0  0  0  0
  4  5  1  0  0  0  0
  4  6  1  0  0  0  0
  4  7  1  0  0  0  0
  7  8  1  0  0  0  0
  7  9  1  0  0  0  0
  7 10  1  0  0  0  0
 10 11  1  0  0  0  0
 10 12  1  0  0  0  0
 10 13  1  0  0  0  0
 13 14  1  0  0  0  0
 13 15  1  0  0  0  0
 15 16  1  0  0  0  0
 15 17  1  0  0  0  0
  1 18  1  0  0  0  0
 15 18  1  0  0  0  0
 18 19  1  0  0  0  0
 18 20  1  0  0  0  0
 13 21  1  0  0  0  0
 21 22  1  0  0  0  0
M  END
> <VConfSearch Rank>
686

> <Conf_Id>
104

> <Delta U+W>
-1.172

> <U+W>
5.252

> <U>
7.482

> <W>
-2.230

> <W(PB)>
-4.220

> <W(SA)>
1.990

> <Valence>
12.309

> <Coulomb>
-7.084

> <VdW>
2.258

> <VdW6>
-9.770

> <VdW12>
12.028

> <Bond>
0.284

> <Angle>
3.491

> <Pdih>
8.535

> <Idih>
0.000

> <Tether>
0.000

$$$$
VeraChem MOL file


 22 22  0  0  0  0  0  0  0  0999 V2000     
   21.4804   19.5390   23.5036 C   0  0  0  0  0  0  0  0  0  0  0  0
   22.0922   19.6212   22.5951 H   0  0  0  0  0  0  0  0  0  0  0  0
   22.1894   19.4547   24.3386 H   0  0  0  0  0  0  0  0  0  0  0  0
   20.6245   18.2521   23.4785 C   0  0  0  0  0  0  0  0  0  0  0  0
   21.2604   17.4028   23.7641 H   0  0  0  0  0  0  0  0  0  0  0  0
   19.8584   18.3095   24.2627 H   0  0  0  0  0  0  0  0  0  0  0  0
   19.9647   17.9110   22.1183 C   0  0  0  0  0  0  0  0  0  0  0  0
   19.0730   17.2978   22.3084 H   0  0  0  0  0  0  0  0  0  0  0  0
   20.6485   17.2628   21.5534 H   0  0  0  0  0  0  0  0  0  0  0  0
   19.5787   19.0996   21.1967 C   0  0  0  0  0  0  0  0  0  0  0  0
   20.4785   19.4625   20.6833 H   0  0  0  0  0  0  0  0  0  0  0  0
   18.9291   18.7138   20.4004 H   0  0  0  0  0  0  0  0  0  0  0  0
   18.8659   20.3013   21.8583 C   0  0  0  0  0  0  0  0  0  0  0  0
   18.3256   20.8380   21.0652 H   0  0  0  0  0  0  0  0  0  0  0  0
   19.8514   21.3107   22.4893 C   0  0  0  0  0  0  0  0  0  0  0  0
   20.5613   21.6377   21.7185 H   0  0  0  0  0  0  0  0  0  0  0  0
   19.2871   22.2091   22.7714 H   0  0  0  0  0  0  0  0  0  0  0  0
   20.6442   20.8216   23.7267 C   0  0  0  0  0  0  0  0  0  0  0  0
   21.3249   21.6286   24.0303 H   0  0  0  0  0  0  0  0  0  0  0  0
   19.9604   20.6780   24.5742 H   0  0  0  0  0  0  0  0  0  0  0  0
   17.9336   19.8545   22.8306 O   0  0  0  0  0  0  0  0  0  0  0  0
   18.4714   19.3212   23.4492 H   0  0  0  0  0  0  0  0  0  0  0  0
  1  2  1  0  0  0  0
  1  3  1  0  0  0  0
  1  4  1  0  0  0  0
  4  5  1  0  0  0  0
  4  6  1  0  0  0  0
  4  7  1  0  0  0  0
  7  8  1  0  0  0  0
  7  9  1  0  0  0  0
  7 10  1  0  0  0  0
 10 11  1  0  0  0  0
 10 12  1  0  0  0  0
 10 13  1  0  0  0  0
 13 14  1  0  0  0  0
 13 15  1  0  0  0  0
 15 16  1  0  0  0  0
 15 17  1  0  0  0  0
  1 18  1  0  0  0  0
 15 18  1  0  0  0  0
 18 19  1  0  0  0  0
 18 20  1  0  0  0  0
 13 21  1  0  0  0  0
 21 22  1  0  0  0  0
M  END
> <VConfSearch Rank>
687

> <Conf_Id>
99

> <Delta U+W>
-3.852

> <U+W>
2.572

> <U>
3.922

> <W>
-1.350

> <W(PB)>
-3.345

> <W(SA)>
1.995

> <Valence>
12.571

> <Coulomb>
-10.581

> <VdW>
1.932

> <VdW6>
-10.483

> <VdW12>
12.415

> <Bond>
0.268

> <Angle>
3.728

> <Pdih>
8.575

> <Idih>
0.000

> <Tether>
0.000

$$$$
VeraChem MOL file


 22 22  0  0  0  0  0  0  0  0999 V2000     
   18.6273   18.8508   22.3106 C   0  0  0  0  0  0  0  0  0  0  0  0
   17.9941   17.9583   22.2117 H   0  0  0  0  0  0  0  0  0  0  0  0
   17.9733   19.6925   22.0466 H   0  0  0  0  0  0  0  0  0  0  0  0
   19.7878   18.7293   21.2798 C   0  0  0  0  0  0  0  0  0  0  0  0
   19.6568   17.7843   20.7347 H   0  0  0  0  0  0  0  0  0  0  0  0
   19.6980   19.5121   20.5149 H   0  0  0  0  0  0  0  0  0  0  0  0
   21.2221   18.7403   21.8677 C   0  0  0  0  0  0  0  0  0  0  0  0
   21.9245   18.4554   21.0727 H   0  0  0  0  0  0  0  0  0  0  0  0
   21.3202   17.9474   22.6195 H   0  0  0  0  0  0  0  0  0  0  0  0
   21.7031   20.0919   22.4650 C   0  0  0  0  0  0  0  0  0  0  0  0
   22.5172   19.8842   23.1714 H   0  0  0  0  0  0  0  0  0  0  0  0
   22.1608   20.6831   21.6607 H   0  0  0  0  0  0  0  0  0  0  0  0
   20.6599   20.9930   23.1706 C   0  0  0  0  0  0  0  0  0  0  0  0
   21.2214   21.7684   23.7113 H   0  0  0  0  0  0  0  0  0  0  0  0
   19.7424   20.2974   24.2062 C   0  0  0  0  0  0  0  0  0  0  0  0
   20.3246   20.1142   25.1185 H   0  0  0  0  0  0  0  0  0  0  0  0
   18.9663   21.0178   24.4972 H   0  0  0  0  0  0  0  0  0  0  0  0
   19.0493   18.9679   23.7975 C   0  0  0  0  0  0  0  0  0  0  0  0
   19.6882   18.1185   24.0692 H   0  0  0  0  0  0  0  0  0  0  0  0
   18.1534   18.8503   24.4222 H   0  0  0  0  0  0  0  0  0  0  0  0
   19.8653   21.6529   22.1979 O   0  0  0  0  0  0  0  0  0  0  0  0
   19.3897   20.9258   21.7483 H   0  0  0  0  0  0  0  0  0  0  0  0
  1  2  1  0  0  0  0
  1  3  1  0  0  0  0
  1  4  1  0  0  0  0
  4  5  1  0  0  0  0
  4  6  1  0  0  0  0
  4  7  1  0  0  0  0
  7  8  1  0  0  0  0
  7  9  1  0  0  0  0
  7 10  1  0  0  0  0
 10 11  1  0  0  0  0
 10 12  1  0  0  0  0
 10 13  1  0  0  0  0
 13 14  1  0  0  0  0
 13 15  1  0  0  0  0
 15 16  1  0  0  0  0
 15 17  1  0  0  0  0
  1 18  1  0  0  0  0
 15 18  1  0  0  0  0
 18 19  1  0  0  0  0
 18 20  1  0  0  0  0
 13 21  1  0  0  0  0
 21 22  1  0  0  0  0
M  END
> <VConfSearch Rank>
688

> <Conf_Id>
98

> <Delta U+W>
0.930

> <U+W>
7.353

> <U>
8.455

> <W>
-1.102

> <W(PB)>
-3.101

> <W(SA)>
2.000

> <Valence>
15.601

> <Coulomb>
-10.573

> <VdW>
3.427

> <VdW6>
-11.360

> <VdW12>
14.787

> <Bond>
0.471

> <Angle>
5.445

> <Pdih>
9.685

> <Idih>
0.000

> <Tether>
0.000

$$$$
VeraChem MOL file


 22 22  0  0  0  0  0  0  0  0999 V2000     
   21.2454   19.5953   23.8544 C   0  0  0  0  0  0  0  0  0  0  0  0
   21.9644   19.7296   23.0360 H   0  0  0  0  0  0  0  0  0  0  0  0
   21.8441   19.6590   24.7732 H   0  0  0  0  0  0  0  0  0  0  0  0
   20.6166   18.1811   23.7724 C   0  0  0  0  0  0  0  0  0  0  0  0
   21.4346   17.4510   23.8408 H   0  0  0  0  0  0  0  0  0  0  0  0
   19.9876   18.0066   24.6559 H   0  0  0  0  0  0  0  0  0  0  0  0
   19.7952   17.8681   22.4910 C   0  0  0  0  0  0  0  0  0  0  0  0
   18.7209   17.9165   22.7114 H   0  0  0  0  0  0  0  0  0  0  0  0
   19.9798   16.8215   22.2130 H   0  0  0  0  0  0  0  0  0  0  0  0
   20.1137   18.7705   21.2696 C   0  0  0  0  0  0  0  0  0  0  0  0
   21.1966   18.7686   21.0934 H   0  0  0  0  0  0  0  0  0  0  0  0
   19.6819   18.3038   20.3740 H   0  0  0  0  0  0  0  0  0  0  0  0
   19.6133   20.2419   21.3621 C   0  0  0  0  0  0  0  0  0  0  0  0
   20.4345   20.8997   21.0429 H   0  0  0  0  0  0  0  0  0  0  0  0
   19.1366   20.7081   22.7606 C   0  0  0  0  0  0  0  0  0  0  0  0
   18.6982   21.7105   22.6707 H   0  0  0  0  0  0  0  0  0  0  0  0
   18.3152   20.0674   23.1031 H   0  0  0  0  0  0  0  0  0  0  0  0
   20.2350   20.7665   23.8514 C   0  0  0  0  0  0  0  0  0  0  0  0
   20.7981   21.7031   23.7390 H   0  0  0  0  0  0  0  0  0  0  0  0
   19.7473   20.8242   24.8340 H   0  0  0  0  0  0  0  0  0  0  0  0
   18.5217   20.4040   20.4636 O   0  0  0  0  0  0  0  0  0  0  0  0
   18.2644   21.3488   20.4990 H   0  0  0  0  0  0  0  0  0  0  0  0
  1  2  1  0  0  0  0
  1  3  1  0  0  0  0
  1  4  1  0  0  0  0
  4  5  1  0  0  0  0
  4  6  1  0  0  0  0
  4  7  1  0  0  0  0
  7  8  1  0  0  0  0
  7  9  1  0  0  0  0
  7 10  1  0  0  0  0
 10 11  1  0  0  0  0
 10 12  1  0  0  0  0
 10 13  1  0  0  0  0
 13 14  1  0  0  0  0
 13 15  1  0  0  0  0
 15 16  1  0  0  0  0
 15 17  1  0  0  0  0
  1 18  1  0  0  0  0
 15 18  1  0  0  0  0
 18 19  1  0  0  0  0
 18 20  1  0  0  0  0
 13 21  1  0  0  0  0
 21 22  1  0  0  0  0
M  END
> <VConfSearch Rank>
689

> <Conf_Id>
141

> <Delta U+W>
0.000

> <U+W>
6.423

> <U>
8.781

> <W>
-2.358

> <W(PB)>
-4.373

> <W(SA)>
2.015

> <Valence>
13.328

> <Coulomb>
-8.387

> <VdW>
3.840

> <VdW6>
-9.744

> <VdW12>
13.584

> <Bond>
0.436

> <Angle>
3.478

> <Pdih>
9.415

> <Idih>
0.000

> <Tether>
0.000

$$$$
VeraChem MOL file


 22 22  0  0  0  0  0  0  0  0999 V2000     
   21.5358   20.2939   23.0889 C   0  0  0  0  0  0  0  0  0  0  0  0
   21.6992   20.5308   22.0288 H   0  0  0  0  0  0  0  0  0  0  0  0
   22.4061   20.6940   23.6270 H   0  0  0  0  0  0  0  0  0  0  0  0
   21.5065   18.7632   23.3159 C   0  0  0  0  0  0  0  0  0  0  0  0
   22.5152   18.3642   23.1422 H   0  0  0  0  0  0  0  0  0  0  0  0
   21.2812   18.5557   24.3710 H   0  0  0  0  0  0  0  0  0  0  0  0
   20.5183   17.9825   22.4191 C   0  0  0  0  0  0  0  0  0  0  0  0
   20.5424   16.9266   22.7214 H   0  0  0  0  0  0  0  0  0  0  0  0
   20.8733   18.0046   21.3796 H   0  0  0  0  0  0  0  0  0  0  0  0
   19.0528   18.4790   22.4740 C   0  0  0  0  0  0  0  0  0  0  0  0
   18.4261   17.7177   21.9911 H   0  0  0  0  0  0  0  0  0  0  0  0
   18.7055   18.5462   23.5132 H   0  0  0  0  0  0  0  0  0  0  0  0
   18.8525   19.8282   21.7480 C   0  0  0  0  0  0  0  0  0  0  0  0
   19.5519   19.8702   20.9007 H   0  0  0  0  0  0  0  0  0  0  0  0
   19.0865   21.0741   22.6324 C   0  0  0  0  0  0  0  0  0  0  0  0
   19.2356   21.9317   21.9637 H   0  0  0  0  0  0  0  0  0  0  0  0
   18.1732   21.2921   23.2021 H   0  0  0  0  0  0  0  0  0  0  0  0
   20.2728   21.0064   23.6265 C   0  0  0  0  0  0  0  0  0  0  0  0
   20.5366   22.0343   23.9106 H   0  0  0  0  0  0  0  0  0  0  0  0
   19.9463   20.5194   24.5555 H   0  0  0  0  0  0  0  0  0  0  0  0
   17.5222   19.8864   21.2477 O   0  0  0  0  0  0  0  0  0  0  0  0
   17.4192   19.1314   20.6313 H   0  0  0  0  0  0  0  0  0  0  0  0
  1  2  1  0  0  0  0
  1  3  1  0  0  0  0
  1  4  1  0  0  0  0
  4  5  1  0  0  0  0
  4  6  1  0  0  0  0
  4  7  1  0  0  0  0
  7  8  1  0  0  0  0
  7  9  1  0  0  0  0
  7 10  1  0  0  0  0
 10 11  1  0  0  0  0
 10 12  1  0  0  0  0
 10 13  1  0  0  0  0
 13 14  1  0  0  0  0
 13 15  1  0  0  0  0
 15 16  1  0  0  0  0
 15 17  1  0  0  0  0
  1 18  1  0  0  0  0
 15 18  1  0  0  0  0
 18 19  1  0  0  0  0
 18 20  1  0  0  0  0
 13 21  1  0  0  0  0
 21 22  1  0  0  0  0
M  END
> <VConfSearch Rank>
690

> <Conf_Id>
144

> <Delta U+W>
-3.291

> <U+W>
3.132

> <U>
5.411

> <W>
-2.279

> <W(PB)>
-4.300

> <W(SA)>
2.021

> <Valence>
11.909

> <Coulomb>
-8.733

> <VdW>
2.236

> <VdW6>
-8.936

> <VdW12>
11.172

> <Bond>
0.223

> <Angle>
2.457

> <Pdih>
9.228

> <Idih>
0.000

> <Tether>
0.000

$$$$
VeraChem MOL file


 22 22  0  0  0  0  0  0  0  0999 V2000     
   21.3227   20.4384   23.2073 C   0  0  0  0  0  0  0  0  0  0  0  0
   22.3321   20.7384   23.5201 H   0  0  0  0  0  0  0  0  0  0  0  0
   20.6999   21.3400   23.2853 H   0  0  0  0  0  0  0  0  0  0  0  0
   20.8274   19.3409   24.1780 C   0  0  0  0  0  0  0  0  0  0  0  0
   21.2312   18.3679   23.8664 H   0  0  0  0  0  0  0  0  0  0  0  0
   21.2524   19.5289   25.1735 H   0  0  0  0  0  0  0  0  0  0  0  0
   19.2900   19.2416   24.3271 C   0  0  0  0  0  0  0  0  0  0  0  0
   18.9538   19.9828   25.0651 H   0  0  0  0  0  0  0  0  0  0  0  0
   19.0508   18.2605   24.7598 H   0  0  0  0  0  0  0  0  0  0  0  0
   18.4605   19.4380   23.0343 C   0  0  0  0  0  0  0  0  0  0  0  0
   17.4596   19.0217   23.2109 H   0  0  0  0  0  0  0  0  0  0  0  0
   18.3101   20.5117   22.8621 H   0  0  0  0  0  0  0  0  0  0  0  0
   19.0688   18.7977   21.7664 C   0  0  0  0  0  0  0  0  0  0  0  0
   19.5878   17.8670   22.0366 H   0  0  0  0  0  0  0  0  0  0  0  0
   20.0483   19.7444   21.0361 C   0  0  0  0  0  0  0  0  0  0  0  0
   20.2436   19.3426   20.0328 H   0  0  0  0  0  0  0  0  0  0  0  0
   19.5696   20.7205   20.8840 H   0  0  0  0  0  0  0  0  0  0  0  0
   21.4100   19.9517   21.7408 C   0  0  0  0  0  0  0  0  0  0  0  0
   21.9868   19.0175   21.7003 H   0  0  0  0  0  0  0  0  0  0  0  0
   21.9876   20.6853   21.1621 H   0  0  0  0  0  0  0  0  0  0  0  0
   18.0100   18.4892   20.8697 O   0  0  0  0  0  0  0  0  0  0  0  0
   17.5731   19.3390   20.6548 H   0  0  0  0  0  0  0  0  0  0  0  0
  1  2  1  0  0  0  0
  1  3  1  0  0  0  0
  1  4  1  0  0  0  0
  4  5  1  0  0  0  0
  4  6  1  0  0  0  0
  4  7  1  0  0  0  0
  7  8  1  0  0  0  0
  7  9  1  0  0  0  0
  7 10  1  0  0  0  0
 10 11  1  0  0  0  0
 10 12  1  0  0  0  0
 10 13  1  0  0  0  0
 13 14  1  0  0  0  0
 13 15  1  0  0  0  0
 15 16  1  0  0  0  0
 15 17  1  0  0  0  0
  1 18  1  0  0  0  0
 15 18  1  0  0  0  0
 18 19  1  0  0  0  0
 18 20  1  0  0  0  0
 13 21  1  0  0  0  0
 21 22  1  0  0  0  0
M  END
> <VConfSearch Rank>
691

> <Conf_Id>
76

> <Delta U+W>
-3.175

> <U+W>
3.248

> <U>
5.336

> <W>
-2.088

> <W(PB)>
-4.098

> <W(SA)>
2.010

> <Valence>
12.390

> <Coulomb>
-9.270

> <VdW>
2.216

> <VdW6>
-8.967

> <VdW12>
11.183

> <Bond>
0.218

> <Angle>
2.426

> <Pdih>
9.745

> <Idih>
0.000

> <Tether>
0.000

$$$$
VeraChem MOL file


 22 22  0  0  0  0  0  0  0  0999 V2000     
   20.5273   18.2106   21.4660 C   0  0  0  0  0  0  0  0  0  0  0  0
   21.3739   18.2087   20.7661 H   0  0  0  0  0  0  0  0  0  0  0  0
   20.0519   17.2258   21.3615 H   0  0  0  0  0  0  0  0  0  0  0  0
   19.5270   19.3009   21.0127 C   0  0  0  0  0  0  0  0  0  0  0  0
   20.0796   20.1637   20.6169 H   0  0  0  0  0  0  0  0  0  0  0  0
   18.9546   18.9041   20.1631 H   0  0  0  0  0  0  0  0  0  0  0  0
   18.5405   19.7783   22.1038 C   0  0  0  0  0  0  0  0  0  0  0  0
   18.2269   18.9424   22.7439 H   0  0  0  0  0  0  0  0  0  0  0  0
   17.6303   20.1392   21.6063 H   0  0  0  0  0  0  0  0  0  0  0  0
   19.1060   20.9429   22.9558 C   0  0  0  0  0  0  0  0  0  0  0  0
   19.4767   21.7313   22.2884 H   0  0  0  0  0  0  0  0  0  0  0  0
   18.2805   21.3976   23.5191 H   0  0  0  0  0  0  0  0  0  0  0  0
   20.2221   20.5754   23.9599 C   0  0  0  0  0  0  0  0  0  0  0  0
   20.6305   21.5227   24.3406 H   0  0  0  0  0  0  0  0  0  0  0  0
   21.4073   19.7749   23.3641 C   0  0  0  0  0  0  0  0  0  0  0  0
   21.8526   20.3340   22.5311 H   0  0  0  0  0  0  0  0  0  0  0  0
   22.1883   19.7180   24.1332 H   0  0  0  0  0  0  0  0  0  0  0  0
   21.0662   18.3313   22.9114 C   0  0  0  0  0  0  0  0  0  0  0  0
   21.9717   17.7141   22.9861 H   0  0  0  0  0  0  0  0  0  0  0  0
   20.3476   17.8782   23.6070 H   0  0  0  0  0  0  0  0  0  0  0  0
   19.6533   19.8654   25.0556 O   0  0  0  0  0  0  0  0  0  0  0  0
   20.3972   19.6083   25.6376 H   0  0  0  0  0  0  0  0  0  0  0  0
  1  2  1  0  0  0  0
  1  3  1  0  0  0  0
  1  4  1  0  0  0  0
  4  5  1  0  0  0  0
  4  6  1  0  0  0  0
  4  7  1  0  0  0  0
  7  8  1  0  0  0  0
  7  9  1  0  0  0  0
  7 10  1  0  0  0  0
 10 11  1  0  0  0  0
 10 12  1  0  0  0  0
 10 13  1  0  0  0  0
 13 14  1  0  0  0  0
 13 15  1  0  0  0  0
 15 16  1  0  0  0  0
 15 17  1  0  0  0  0
  1 18  1  0  0  0  0
 15 18  1  0  0  0  0
 18 19  1  0  0  0  0
 18 20  1  0  0  0  0
 13 21  1  0  0  0  0
 21 22  1  0  0  0  0
M  END
> <VConfSearch Rank>
692

> <Conf_Id>
95

> <Delta U+W>
-2.289

> <U+W>
4.134

> <U>
6.373

> <W>
-2.240

> <W(PB)>
-4.254

> <W(SA)>
2.015

> <Valence>
12.093

> <Coulomb>
-8.058

> <VdW>
2.339

> <VdW6>
-9.683

> <VdW12>
12.022

> <Bond>
0.268

> <Angle>
3.005

> <Pdih>
8.820

> <Idih>
0.000

> <Tether>
0.000

$$$$
VeraChem MOL file


 22 22  0  0  0  0  0  0  0  0999 V2000     
   20.2401   19.6774   24.6076 C   0  0  0  0  0  0  0  0  0  0  0  0
   20.5653   20.5206   25.2320 H   0  0  0  0  0  0  0  0  0  0  0  0
   20.0066   18.8622   25.3060 H   0  0  0  0  0  0  0  0  0  0  0  0
   21.4300   19.2480   23.7164 C   0  0  0  0  0  0  0  0  0  0  0  0
   22.0015   20.1366   23.4160 H   0  0  0  0  0  0  0  0  0  0  0  0
   22.1172   18.6517   24.3321 H   0  0  0  0  0  0  0  0  0  0  0  0
   21.0466   18.4331   22.4593 C   0  0  0  0  0  0  0  0  0  0  0  0
   20.2166   17.7462   22.6739 H   0  0  0  0  0  0  0  0  0  0  0  0
   21.9034   17.8011   22.1891 H   0  0  0  0  0  0  0  0  0  0  0  0
   20.7206   19.3329   21.2405 C   0  0  0  0  0  0  0  0  0  0  0  0
   21.5294   20.0627   21.1066 H   0  0  0  0  0  0  0  0  0  0  0  0
   20.7340   18.7141   20.3339 H   0  0  0  0  0  0  0  0  0  0  0  0
   19.3743   20.0908   21.2930 C   0  0  0  0  0  0  0  0  0  0  0  0
   19.3785   20.8040   20.4561 H   0  0  0  0  0  0  0  0  0  0  0  0
   19.1301   20.9090   22.5857 C   0  0  0  0  0  0  0  0  0  0  0  0
   19.9413   21.6343   22.7289 H   0  0  0  0  0  0  0  0  0  0  0  0
   18.2212   21.5034   22.4264 H   0  0  0  0  0  0  0  0  0  0  0  0
   18.9350   20.0661   23.8729 C   0  0  0  0  0  0  0  0  0  0  0  0
   18.3092   20.6338   24.5746 H   0  0  0  0  0  0  0  0  0  0  0  0
   18.3611   19.1590   23.6416 H   0  0  0  0  0  0  0  0  0  0  0  0
   18.3063   19.1712   21.0868 O   0  0  0  0  0  0  0  0  0  0  0  0
   18.5182   18.6718   20.2720 H   0  0  0  0  0  0  0  0  0  0  0  0
  1  2  1  0  0  0  0
  1  3  1  0  0  0  0
  1  4  1  0  0  0  0
  4  5  1  0  0  0  0
  4  6  1  0  0  0  0
  4  7  1  0  0  0  0
  7  8  1  0  0  0  0
  7  9  1  0  0  0  0
  7 10  1  0  0  0  0
 10 11  1  0  0  0  0
 10 12  1  0  0  0  0
 10 13  1  0  0  0  0
 13 14  1  0  0  0  0
 13 15  1  0  0  0  0
 15 16  1  0  0  0  0
 15 17  1  0  0  0  0
  1 18  1  0  0  0  0
 15 18  1  0  0  0  0
 18 19  1  0  0  0  0
 18 20  1  0  0  0  0
 13 21  1  0  0  0  0
 21 22  1  0  0  0  0
M  END
> <VConfSearch Rank>
693

> <Conf_Id>
41

> <Delta U+W>
-2.114

> <U+W>
4.310

> <U>
6.598

> <W>
-2.289

> <W(PB)>
-4.294

> <W(SA)>
2.005

> <Valence>
12.082

> <Coulomb>
-7.801

> <VdW>
2.317

> <VdW6>
-9.658

> <VdW12>
11.975

> <Bond>
0.267

> <Angle>
3.051

> <Pdih>
8.764

> <Idih>
0.000

> <Tether>
0.000

$$$$
VeraChem MOL file


 22 22  0  0  0  0  0  0  0  0999 V2000     
   18.4333   19.5580   22.9292 C   0  0  0  0  0  0  0  0  0  0  0  0
   17.4045   19.4709   23.3043 H   0  0  0  0  0  0  0  0  0  0  0  0
   18.3990   20.2783   22.1003 H   0  0  0  0  0  0  0  0  0  0  0  0
   18.8734   18.1653   22.4251 C   0  0  0  0  0  0  0  0  0  0  0  0
   18.9615   17.4771   23.2767 H   0  0  0  0  0  0  0  0  0  0  0  0
   18.0781   17.7555   21.7878 H   0  0  0  0  0  0  0  0  0  0  0  0
   20.1906   18.1587   21.6188 C   0  0  0  0  0  0  0  0  0  0  0  0
   20.0355   18.6732   20.6612 H   0  0  0  0  0  0  0  0  0  0  0  0
   20.4228   17.1172   21.3587 H   0  0  0  0  0  0  0  0  0  0  0  0
   21.4173   18.7635   22.3540 C   0  0  0  0  0  0  0  0  0  0  0  0
   21.5272   18.3039   23.3445 H   0  0  0  0  0  0  0  0  0  0  0  0
   22.3157   18.4762   21.7928 H   0  0  0  0  0  0  0  0  0  0  0  0
   21.4360   20.3083   22.4858 C   0  0  0  0  0  0  0  0  0  0  0  0
   22.4718   20.5921   22.7223 H   0  0  0  0  0  0  0  0  0  0  0  0
   20.5574   20.9016   23.6178 C   0  0  0  0  0  0  0  0  0  0  0  0
   21.1964   21.0557   24.4970 H   0  0  0  0  0  0  0  0  0  0  0  0
   20.2253   21.9059   23.3236 H   0  0  0  0  0  0  0  0  0  0  0  0
   19.3231   20.0861   24.0761 C   0  0  0  0  0  0  0  0  0  0  0  0
   19.6435   19.2506   24.7130 H   0  0  0  0  0  0  0  0  0  0  0  0
   18.7149   20.7328   24.7231 H   0  0  0  0  0  0  0  0  0  0  0  0
   21.0948   20.9186   21.2440 O   0  0  0  0  0  0  0  0  0  0  0  0
   21.1620   21.8860   21.3765 H   0  0  0  0  0  0  0  0  0  0  0  0
  1  2  1  0  0  0  0
  1  3  1  0  0  0  0
  1  4  1  0  0  0  0
  4  5  1  0  0  0  0
  4  6  1  0  0  0  0
  4  7  1  0  0  0  0
  7  8  1  0  0  0  0
  7  9  1  0  0  0  0
  7 10  1  0  0  0  0
 10 11  1  0  0  0  0
 10 12  1  0  0  0  0
 10 13  1  0  0  0  0
 13 14  1  0  0  0  0
 13 15  1  0  0  0  0
 15 16  1  0  0  0  0
 15 17  1  0  0  0  0
  1 18  1  0  0  0  0
 15 18  1  0  0  0  0
 18 19  1  0  0  0  0
 18 20  1  0  0  0  0
 13 21  1  0  0  0  0
 21 22  1  0  0  0  0
M  END
> <VConfSearch Rank>
694

> <Conf_Id>
104

> <Delta U+W>
-1.172

> <U+W>
5.252

> <U>
7.482

> <W>
-2.230

> <W(PB)>
-4.220

> <W(SA)>
1.990

> <Valence>
12.309

> <Coulomb>
-7.084

> <VdW>
2.258

> <VdW6>
-9.770

> <VdW12>
12.028

> <Bond>
0.284

> <Angle>
3.491

> <Pdih>
8.535

> <Idih>
0.000

> <Tether>
0.000

$$$$
VeraChem MOL file


 22 22  0  0  0  0  0  0  0  0999 V2000     
   20.6735   18.3632   21.7552 C   0  0  0  0  0  0  0  0  0  0  0  0
   21.0295   19.0423   20.9687 H   0  0  0  0  0  0  0  0  0  0  0  0
   20.9251   17.3492   21.4154 H   0  0  0  0  0  0  0  0  0  0  0  0
   19.1369   18.4452   21.9015 C   0  0  0  0  0  0  0  0  0  0  0  0
   18.6765   17.8484   21.1021 H   0  0  0  0  0  0  0  0  0  0  0  0
   18.8336   17.9520   22.8344 H   0  0  0  0  0  0  0  0  0  0  0  0
   18.5310   19.8700   21.8352 C   0  0  0  0  0  0  0  0  0  0  0  0
   17.5755   19.8672   22.3776 H   0  0  0  0  0  0  0  0  0  0  0  0
   18.2720   20.0891   20.7903 H   0  0  0  0  0  0  0  0  0  0  0  0
   19.4083   21.0411   22.3549 C   0  0  0  0  0  0  0  0  0  0  0  0
   20.1459   21.3055   21.5861 H   0  0  0  0  0  0  0  0  0  0  0  0
   18.7670   21.9265   22.4547 H   0  0  0  0  0  0  0  0  0  0  0  0
   20.1451   20.8277   23.6972 C   0  0  0  0  0  0  0  0  0  0  0  0
   20.3727   21.8223   24.1069 H   0  0  0  0  0  0  0  0  0  0  0  0
   21.4947   20.0934   23.5309 C   0  0  0  0  0  0  0  0  0  0  0  0
   22.1130   20.6519   22.8162 H   0  0  0  0  0  0  0  0  0  0  0  0
   22.0312   20.1429   24.4875 H   0  0  0  0  0  0  0  0  0  0  0  0
   21.4255   18.6120   23.0843 C   0  0  0  0  0  0  0  0  0  0  0  0
   22.4552   18.2463   22.9717 H   0  0  0  0  0  0  0  0  0  0  0  0
   20.9818   18.0026   23.8832 H   0  0  0  0  0  0  0  0  0  0  0  0
   19.3177   20.1291   24.6145 O   0  0  0  0  0  0  0  0  0  0  0  0
   19.0921   19.2996   24.1483 H   0  0  0  0  0  0  0  0  0  0  0  0
  1  2  1  0  0  0  0
  1  3  1  0  0  0  0
  1  4  1  0  0  0  0
  4  5  1  0  0  0  0
  4  6  1  0  0  0  0
  4  7  1  0  0  0  0
  7  8  1  0  0  0  0
  7  9  1  0  0  0  0
  7 10  1  0  0  0  0
 10 11  1  0  0  0  0
 10 12  1  0  0  0  0
 10 13  1  0  0  0  0
 13 14  1  0  0  0  0
 13 15  1  0  0  0  0
 15 16  1  0  0  0  0
 15 17  1  0  0  0  0
  1 18  1  0  0  0  0
 15 18  1  0  0  0  0
 18 19  1  0  0  0  0
 18 20  1  0  0  0  0
 13 21  1  0  0  0  0
 21 22  1  0  0  0  0
M  END
> <VConfSearch Rank>
695

> <Conf_Id>
99

> <Delta U+W>
-3.852

> <U+W>
2.572

> <U>
3.922

> <W>
-1.350

> <W(PB)>
-3.345

> <W(SA)>
1.995

> <Valence>
12.571

> <Coulomb>
-10.581

> <VdW>
1.932

> <VdW6>
-10.483

> <VdW12>
12.415

> <Bond>
0.268

> <Angle>
3.728

> <Pdih>
8.575

> <Idih>
0.000

> <Tether>
0.000

$$$$
VeraChem MOL file


 22 22  0  0  0  0  0  0  0  0999 V2000     
   19.4364   19.5711   24.2170 C   0  0  0  0  0  0  0  0  0  0  0  0
   18.5909   19.6329   24.9160 H   0  0  0  0  0  0  0  0  0  0  0  0
   20.3146   19.3878   24.8506 H   0  0  0  0  0  0  0  0  0  0  0  0
   19.5678   20.9487   23.5037 C   0  0  0  0  0  0  0  0  0  0  0  0
   18.7792   21.6068   23.8940 H   0  0  0  0  0  0  0  0  0  0  0  0
   20.5098   21.4350   23.7903 H   0  0  0  0  0  0  0  0  0  0  0  0
   19.4436   20.9278   21.9587 C   0  0  0  0  0  0  0  0  0  0  0  0
   19.3585   21.9640   21.6040 H   0  0  0  0  0  0  0  0  0  0  0  0
   18.4949   20.4588   21.6697 H   0  0  0  0  0  0  0  0  0  0  0  0
   20.6159   20.2572   21.1901 C   0  0  0  0  0  0  0  0  0  0  0  0
   20.2491   19.9554   20.2006 H   0  0  0  0  0  0  0  0  0  0  0  0
   21.3832   21.0184   20.9951 H   0  0  0  0  0  0  0  0  0  0  0  0
   21.3196   19.0423   21.8434 C   0  0  0  0  0  0  0  0  0  0  0  0
   21.9461   18.5805   21.0669 H   0  0  0  0  0  0  0  0  0  0  0  0
   20.3944   17.9299   22.3954 C   0  0  0  0  0  0  0  0  0  0  0  0
   20.0016   17.3528   21.5485 H   0  0  0  0  0  0  0  0  0  0  0  0
   21.0223   17.2270   22.9591 H   0  0  0  0  0  0  0  0  0  0  0  0
   19.1980   18.3486   23.2943 C   0  0  0  0  0  0  0  0  0  0  0  0
   18.3105   18.5213   22.6729 H   0  0  0  0  0  0  0  0  0  0  0  0
   18.9319   17.4874   23.9222 H   0  0  0  0  0  0  0  0  0  0  0  0
   22.1893   19.4915   22.8706 O   0  0  0  0  0  0  0  0  0  0  0  0
   21.5884   19.8908   23.5312 H   0  0  0  0  0  0  0  0  0  0  0  0
  1  2  1  0  0  0  0
  1  3  1  0  0  0  0
  1  4  1  0  0  0  0
  4  5  1  0  0  0  0
  4  6  1  0  0  0  0
  4  7  1  0  0  0  0
  7  8  1  0  0  0  0
  7  9  1  0  0  0  0
  7 10  1  0  0  0  0
 10 11  1  0  0  0  0
 10 12  1  0  0  0  0
 10 13  1  0  0  0  0
 13 14  1  0  0  0  0
 13 15  1  0  0  0  0
 15 16  1  0  0  0  0
 15 17  1  0  0  0  0
  1 18  1  0  0  0  0
 15 18  1  0  0  0  0
 18 19  1  0  0  0  0
 18 20  1  0  0  0  0
 13 21  1  0  0  0  0
 21 22  1  0  0  0  0
M  END
> <VConfSearch Rank>
696

> <Conf_Id>
98

> <Delta U+W>
0.930

> <U+W>
7.353

> <U>
8.455

> <W>
-1.102

> <W(PB)>
-3.101

> <W(SA)>
2.000

> <Valence>
15.601

> <Coulomb>
-10.573

> <VdW>
3.427

> <VdW6>
-11.360

> <VdW12>
14.787

> <Bond>
0.471

> <Angle>
5.445

> <Pdih>
9.685

> <Idih>
0.000

> <Tether>
0.000

$$$$
VeraChem MOL file


 22 22  0  0  0  0  0  0  0  0999 V2000     
   21.5162   20.1314   22.0672 C   0  0  0  0  0  0  0  0  0  0  0  0
   20.9488   20.9450   21.5972 H   0  0  0  0  0  0  0  0  0  0  0  0
   22.5695   20.3563   21.8507 H   0  0  0  0  0  0  0  0  0  0  0  0
   21.1517   18.7827   21.3961 C   0  0  0  0  0  0  0  0  0  0  0  0
   21.3943   18.8686   20.3281 H   0  0  0  0  0  0  0  0  0  0  0  0
   21.8039   17.9897   21.7864 H   0  0  0  0  0  0  0  0  0  0  0  0
   19.6697   18.3324   21.5206 C   0  0  0  0  0  0  0  0  0  0  0  0
   19.5785   17.5433   22.2782 H   0  0  0  0  0  0  0  0  0  0  0  0
   19.3770   17.8530   20.5765 H   0  0  0  0  0  0  0  0  0  0  0  0
   18.6615   19.4694   21.8341 C   0  0  0  0  0  0  0  0  0  0  0  0
   18.8009   20.2833   21.1118 H   0  0  0  0  0  0  0  0  0  0  0  0
   17.6473   19.0936   21.6426 H   0  0  0  0  0  0  0  0  0  0  0  0
   18.7194   20.0510   23.2771 C   0  0  0  0  0  0  0  0  0  0  0  0
   18.6978   21.1477   23.2015 H   0  0  0  0  0  0  0  0  0  0  0  0
   19.9557   19.6490   24.1199 C   0  0  0  0  0  0  0  0  0  0  0  0
   19.8213   20.0163   25.1457 H   0  0  0  0  0  0  0  0  0  0  0  0
   20.0007   18.5572   24.2116 H   0  0  0  0  0  0  0  0  0  0  0  0
   21.3150   20.1800   23.6001 C   0  0  0  0  0  0  0  0  0  0  0  0
   21.4388   21.2211   23.9281 H   0  0  0  0  0  0  0  0  0  0  0  0
   22.1197   19.6129   24.0874 H   0  0  0  0  0  0  0  0  0  0  0  0
   17.5626   19.6183   23.9841 O   0  0  0  0  0  0  0  0  0  0  0  0
   17.5950   20.0435   24.8663 H   0  0  0  0  0  0  0  0  0  0  0  0
  1  2  1  0  0  0  0
  1  3  1  0  0  0  0
  1  4  1  0  0  0  0
  4  5  1  0  0  0  0
  4  6  1  0  0  0  0
  4  7  1  0  0  0  0
  7  8  1  0  0  0  0
  7  9  1  0  0  0  0
  7 10  1  0  0  0  0
 10 11  1  0  0  0  0
 10 12  1  0  0  0  0
 10 13  1  0  0  0  0
 13 14  1  0  0  0  0
 13 15  1  0  0  0  0
 15 16  1  0  0  0  0
 15 17  1  0  0  0  0
  1 18  1  0  0  0  0
 15 18  1  0  0  0  0
 18 19  1  0  0  0  0
 18 20  1  0  0  0  0
 13 21  1  0  0  0  0
 21 22  1  0  0  0  0
M  END
> <VConfSearch Rank>
697

> <Conf_Id>
141

> <Delta U+W>
0.000

> <U+W>
6.423

> <U>
8.781

> <W>
-2.358

> <W(PB)>
-4.373

> <W(SA)>
2.015

> <Valence>
13.328

> <Coulomb>
-8.387

> <VdW>
3.840

> <VdW6>
-9.744

> <VdW12>
13.584

> <Bond>
0.436

> <Angle>
3.478

> <Pdih>
9.415

> <Idih>
0.000

> <Tether>
0.000

$$$$
VeraChem MOL file


 22 22  0  0  0  0  0  0  0  0999 V2000     
   20.1683   20.4227   21.1207 C   0  0  0  0  0  0  0  0  0  0  0  0
   20.8788   19.6410   20.8194 H   0  0  0  0  0  0  0  0  0  0  0  0
   20.0562   21.0831   20.2499 H   0  0  0  0  0  0  0  0  0  0  0  0
   20.7386   21.2709   22.2830 C   0  0  0  0  0  0  0  0  0  0  0  0
   21.5845   21.8604   21.9037 H   0  0  0  0  0  0  0  0  0  0  0  0
   19.9847   22.0028   22.6037 H   0  0  0  0  0  0  0  0  0  0  0  0
   21.2240   20.4657   23.5104 C   0  0  0  0  0  0  0  0  0  0  0  0
   21.5390   21.1785   24.2847 H   0  0  0  0  0  0  0  0  0  0  0  0
   22.1253   19.8982   23.2412 H   0  0  0  0  0  0  0  0  0  0  0  0
   20.1732   19.5060   24.1202 C   0  0  0  0  0  0  0  0  0  0  0  0
   20.5505   19.1787   25.0980 H   0  0  0  0  0  0  0  0  0  0  0  0
   19.2327   20.0365   24.3177 H   0  0  0  0  0  0  0  0  0  0  0  0
   19.9185   18.2625   23.2389 C   0  0  0  0  0  0  0  0  0  0  0  0
   20.8573   18.0048   22.7278 H   0  0  0  0  0  0  0  0  0  0  0  0
   18.8189   18.4486   22.1687 C   0  0  0  0  0  0  0  0  0  0  0  0
   18.9470   17.6554   21.4208 H   0  0  0  0  0  0  0  0  0  0  0  0
   17.8349   18.2758   22.6248 H   0  0  0  0  0  0  0  0  0  0  0  0
   18.7823   19.8162   21.4419 C   0  0  0  0  0  0  0  0  0  0  0  0
   18.2233   19.6878   20.5049 H   0  0  0  0  0  0  0  0  0  0  0  0
   18.1991   20.5327   22.0363 H   0  0  0  0  0  0  0  0  0  0  0  0
   19.5394   17.1771   24.0763 O   0  0  0  0  0  0  0  0  0  0  0  0
   20.2824   17.0271   24.6978 H   0  0  0  0  0  0  0  0  0  0  0  0
  1  2  1  0  0  0  0
  1  3  1  0  0  0  0
  1  4  1  0  0  0  0
  4  5  1  0  0  0  0
  4  6  1  0  0  0  0
  4  7  1  0  0  0  0
  7  8  1  0  0  0  0
  7  9  1  0  0  0  0
  7 10  1  0  0  0  0
 10 11  1  0  0  0  0
 10 12  1  0  0  0  0
 10 13  1  0  0  0  0
 13 14  1  0  0  0  0
 13 15  1  0  0  0  0
 15 16  1  0  0  0  0
 15 17  1  0  0  0  0
  1 18  1  0  0  0  0
 15 18  1  0  0  0  0
 18 19  1  0  0  0  0
 18 20  1  0  0  0  0
 13 21  1  0  0  0  0
 21 22  1  0  0  0  0
M  END
> <VConfSearch Rank>
698

> <Conf_Id>
144

> <Delta U+W>
-3.291

> <U+W>
3.132

> <U>
5.411

> <W>
-2.279

> <W(PB)>
-4.300

> <W(SA)>
2.021

> <Valence>
11.909

> <Coulomb>
-8.733

> <VdW>
2.236

> <VdW6>
-8.936

> <VdW12>
11.172

> <Bond>
0.223

> <Angle>
2.457

> <Pdih>
9.228

> <Idih>
0.000

> <Tether>
0.000

$$$$
VeraChem MOL file


 22 22  0  0  0  0  0  0  0  0999 V2000     
   18.8729   18.2146   22.3822 C   0  0  0  0  0  0  0  0  0  0  0  0
   18.0004   17.5830   22.1661 H   0  0  0  0  0  0  0  0  0  0  0  0
   19.7105   17.5260   22.5579 H   0  0  0  0  0  0  0  0  0  0  0  0
   18.5627   19.0405   23.6525 C   0  0  0  0  0  0  0  0  0  0  0  0
   17.9701   19.9240   23.3785 H   0  0  0  0  0  0  0  0  0  0  0  0
   17.9155   18.4472   24.3129 H   0  0  0  0  0  0  0  0  0  0  0  0
   19.8023   19.4795   24.4690 C   0  0  0  0  0  0  0  0  0  0  0  0
   20.1033   18.6567   25.1319 H   0  0  0  0  0  0  0  0  0  0  0  0
   19.5016   20.3020   25.1323 H   0  0  0  0  0  0  0  0  0  0  0  0
   21.0424   19.9185   23.6520 C   0  0  0  0  0  0  0  0  0  0  0  0
   21.6940   20.5008   24.3175 H   0  0  0  0  0  0  0  0  0  0  0  0
   21.6220   19.0297   23.3709 H   0  0  0  0  0  0  0  0  0  0  0  0
   20.7285   20.7454   22.3850 C   0  0  0  0  0  0  0  0  0  0  0  0
   19.8481   21.3780   22.5669 H   0  0  0  0  0  0  0  0  0  0  0  0
   20.4815   19.8575   21.1441 C   0  0  0  0  0  0  0  0  0  0  0  0
   20.5183   20.4894   20.2466 H   0  0  0  0  0  0  0  0  0  0  0  0
   21.3023   19.1359   21.0408 H   0  0  0  0  0  0  0  0  0  0  0  0
   19.1341   19.0972   21.1381 C   0  0  0  0  0  0  0  0  0  0  0  0
   18.3113   19.8157   21.0212 H   0  0  0  0  0  0  0  0  0  0  0  0
   19.1038   18.4598   20.2439 H   0  0  0  0  0  0  0  0  0  0  0  0
   21.8448   21.5806   22.1086 O   0  0  0  0  0  0  0  0  0  0  0  0
   22.6056   20.9835   21.9546 H   0  0  0  0  0  0  0  0  0  0  0  0
  1  2  1  0  0  0  0
  1  3  1  0  0  0  0
  1  4  1  0  0  0  0
  4  5  1  0  0  0  0
  4  6  1  0  0  0  0
  4  7  1  0  0  0  0
  7  8  1  0  0  0  0
  7  9  1  0  0  0  0
  7 10  1  0  0  0  0
 10 11  1  0  0  0  0
 10 12  1  0  0  0  0
 10 13  1  0  0  0  0
 13 14  1  0  0  0  0
 13 15  1  0  0  0  0
 15 16  1  0  0  0  0
 15 17  1  0  0  0  0
  1 18  1  0  0  0  0
 15 18  1  0  0  0  0
 18 19  1  0  0  0  0
 18 20  1  0  0  0  0
 13 21  1  0  0  0  0
 21 22  1  0  0  0  0
M  END
> <VConfSearch Rank>
699

> <Conf_Id>
76

> <Delta U+W>
-3.175

> <U+W>
3.248

> <U>
5.336

> <W>
-2.088

> <W(PB)>
-4.098

> <W(SA)>
2.010

> <Valence>
12.390

> <Coulomb>
-9.270

> <VdW>
2.216

> <VdW6>
-8.967

> <VdW12>
11.183

> <Bond>
0.218

> <Angle>
2.426

> <Pdih>
9.745

> <Idih>
0.000

> <Tether>
0.000

$$$$
VeraChem MOL file


 22 22  0  0  0  0  0  0  0  0999 V2000     
   21.3754   20.8502   23.0608 C   0  0  0  0  0  0  0  0  0  0  0  0
   21.3162   21.6606   23.8001 H   0  0  0  0  0  0  0  0  0  0  0  0
   22.3898   20.9019   22.6424 H   0  0  0  0  0  0  0  0  0  0  0  0
   20.3537   21.1451   21.9366 C   0  0  0  0  0  0  0  0  0  0  0  0
   19.4533   21.6012   22.3699 H   0  0  0  0  0  0  0  0  0  0  0  0
   20.7844   21.9127   21.2794 H   0  0  0  0  0  0  0  0  0  0  0  0
   19.9499   19.9212   21.0819 C   0  0  0  0  0  0  0  0  0  0  0  0
   20.8084   19.2558   20.9169 H   0  0  0  0  0  0  0  0  0  0  0  0
   19.6495   20.2826   20.0892 H   0  0  0  0  0  0  0  0  0  0  0  0
   18.7536   19.1390   21.6812 C   0  0  0  0  0  0  0  0  0  0  0  0
   17.9385   19.8401   21.9019 H   0  0  0  0  0  0  0  0  0  0  0  0
   18.3590   18.4605   20.9136 H   0  0  0  0  0  0  0  0  0  0  0  0
   19.0491   18.3045   22.9483 C   0  0  0  0  0  0  0  0  0  0  0  0
   18.0780   17.9705   23.3414 H   0  0  0  0  0  0  0  0  0  0  0  0
   19.7641   19.0701   24.0899 C   0  0  0  0  0  0  0  0  0  0  0  0
   19.1718   19.9487   24.3766 H   0  0  0  0  0  0  0  0  0  0  0  0
   19.7713   18.4174   24.9723 H   0  0  0  0  0  0  0  0  0  0  0  0
   21.2253   19.4918   23.7863 C   0  0  0  0  0  0  0  0  0  0  0  0
   21.7797   19.5520   24.7326 H   0  0  0  0  0  0  0  0  0  0  0  0
   21.7297   18.7100   23.2034 H   0  0  0  0  0  0  0  0  0  0  0  0
   19.8015   17.1509   22.5861 O   0  0  0  0  0  0  0  0  0  0  0  0
   20.0101   16.6812   23.4193 H   0  0  0  0  0  0  0  0  0  0  0  0
  1  2  1  0  0  0  0
  1  3  1  0  0  0  0
  1  4  1  0  0  0  0
  4  5  1  0  0  0  0
  4  6  1  0  0  0  0
  4  7  1  0  0  0  0
  7  8  1  0  0  0  0
  7  9  1  0  0  0  0
  7 10  1  0  0  0  0
 10 11  1  0  0  0  0
 10 12  1  0  0  0  0
 10 13  1  0  0  0  0
 13 14  1  0  0  0  0
 13 15  1  0  0  0  0
 15 16  1  0  0  0  0
 15 17  1  0  0  0  0
  1 18  1  0  0  0  0
 15 18  1  0  0  0  0
 18 19  1  0  0  0  0
 18 20  1  0  0  0  0
 13 21  1  0  0  0  0
 21 22  1  0  0  0  0
M  END
> <VConfSearch Rank>
700

> <Conf_Id>
95

> <Delta U+W>
-2.289

> <U+W>
4.134

> <U>
6.373

> <W>
-2.240

> <W(PB)>
-4.254

> <W(SA)>
2.015

> <Valence>
12.093

> <Coulomb>
-8.058

> <VdW>
2.339

> <VdW6>
-9.683

> <VdW12>
12.022

> <Bond>
0.268

> <Angle>
3.005

> <Pdih>
8.820

> <Idih>
0.000

> <Tether>
0.000

$$$$
VeraChem MOL file


 22 22  0  0  0  0  0  0  0  0999 V2000     
   19.7974   18.0750   21.6213 C   0  0  0  0  0  0  0  0  0  0  0  0
   19.0557   17.9172   20.8266 H   0  0  0  0  0  0  0  0  0  0  0  0
   20.4076   17.1619   21.6449 H   0  0  0  0  0  0  0  0  0  0  0  0
   19.0444   18.2093   22.9664 C   0  0  0  0  0  0  0  0  0  0  0  0
   18.0973   18.7414   22.8041 H   0  0  0  0  0  0  0  0  0  0  0  0
   18.7612   17.2012   23.2988 H   0  0  0  0  0  0  0  0  0  0  0  0
   19.8391   18.9055   24.0957 C   0  0  0  0  0  0  0  0  0  0  0  0
   20.9004   18.6241   24.0608 H   0  0  0  0  0  0  0  0  0  0  0  0
   19.4574   18.5369   25.0575 H   0  0  0  0  0  0  0  0  0  0  0  0
   19.6731   20.4461   24.0809 C   0  0  0  0  0  0  0  0  0  0  0  0
   18.6045   20.6915   24.0294 H   0  0  0  0  0  0  0  0  0  0  0  0
   20.0173   20.8454   25.0438 H   0  0  0  0  0  0  0  0  0  0  0  0
   20.4088   21.2005   22.9498 C   0  0  0  0  0  0  0  0  0  0  0  0
   20.0511   22.2399   22.9764 H   0  0  0  0  0  0  0  0  0  0  0  0
   20.1427   20.6650   21.5206 C   0  0  0  0  0  0  0  0  0  0  0  0
   19.0664   20.6856   21.3072 H   0  0  0  0  0  0  0  0  0  0  0  0
   20.6012   21.3732   20.8184 H   0  0  0  0  0  0  0  0  0  0  0  0
   20.7177   19.2548   21.2269 C   0  0  0  0  0  0  0  0  0  0  0  0
   20.9252   19.1757   20.1513 H   0  0  0  0  0  0  0  0  0  0  0  0
   21.6923   19.1392   21.7192 H   0  0  0  0  0  0  0  0  0  0  0  0
   21.8078   21.2058   23.2179 O   0  0  0  0  0  0  0  0  0  0  0  0
   21.9176   21.5345   24.1333 H   0  0  0  0  0  0  0  0  0  0  0  0
  1  2  1  0  0  0  0
  1  3  1  0  0  0  0
  1  4  1  0  0  0  0
  4  5  1  0  0  0  0
  4  6  1  0  0  0  0
  4  7  1  0  0  0  0
  7  8  1  0  0  0  0
  7  9  1  0  0  0  0
  7 10  1  0  0  0  0
 10 11  1  0  0  0  0
 10 12  1  0  0  0  0
 10 13  1  0  0  0  0
 13 14  1  0  0  0  0
 13 15  1  0  0  0  0
 15 16  1  0  0  0  0
 15 17  1  0  0  0  0
  1 18  1  0  0  0  0
 15 18  1  0  0  0  0
 18 19  1  0  0  0  0
 18 20  1  0  0  0  0
 13 21  1  0  0  0  0
 21 22  1  0  0  0  0
M  END
> <VConfSearch Rank>
701

> <Conf_Id>
41

> <Delta U+W>
-2.114

> <U+W>
4.310

> <U>
6.598

> <W>
-2.289

> <W(PB)>
-4.294

> <W(SA)>
2.005

> <Valence>
12.082

> <Coulomb>
-7.801

> <VdW>
2.317

> <VdW6>
-9.658

> <VdW12>
11.975

> <Bond>
0.267

> <Angle>
3.051

> <Pdih>
8.764

> <Idih>
0.000

> <Tether>
0.000

$$$$
VeraChem MOL file


 22 22  0  0  0  0  0  0  0  0999 V2000     
   21.6407   18.9419   22.6612 C   0  0  0  0  0  0  0  0  0  0  0  0
   22.6080   18.4634   22.8659 H   0  0  0  0  0  0  0  0  0  0  0  0
   21.5776   19.0545   21.5701 H   0  0  0  0  0  0  0  0  0  0  0  0
   21.6392   20.3230   23.3540 C   0  0  0  0  0  0  0  0  0  0  0  0
   21.6398   20.1873   24.4441 H   0  0  0  0  0  0  0  0  0  0  0  0
   22.5799   20.8369   23.1140 H   0  0  0  0  0  0  0  0  0  0  0  0
   20.4679   21.2450   22.9502 C   0  0  0  0  0  0  0  0  0  0  0  0
   20.5888   21.5519   21.9028 H   0  0  0  0  0  0  0  0  0  0  0  0
   20.5466   22.1692   23.5382 H   0  0  0  0  0  0  0  0  0  0  0  0
   19.0517   20.6467   23.1681 C   0  0  0  0  0  0  0  0  0  0  0  0
   18.9561   20.2689   24.1940 H   0  0  0  0  0  0  0  0  0  0  0  0
   18.3280   21.4678   23.0863 H   0  0  0  0  0  0  0  0  0  0  0  0
   18.6151   19.5514   22.1613 C   0  0  0  0  0  0  0  0  0  0  0  0
   17.5215   19.4679   22.2408 H   0  0  0  0  0  0  0  0  0  0  0  0
   19.1761   18.1294   22.4227 C   0  0  0  0  0  0  0  0  0  0  0  0
   18.4252   17.5689   22.9946 H   0  0  0  0  0  0  0  0  0  0  0  0
   19.2647   17.5983   21.4659 H   0  0  0  0  0  0  0  0  0  0  0  0
   20.5217   18.0124   23.1806 C   0  0  0  0  0  0  0  0  0  0  0  0
   20.3620   18.1863   24.2533 H   0  0  0  0  0  0  0  0  0  0  0  0
   20.8636   16.9716   23.0989 H   0  0  0  0  0  0  0  0  0  0  0  0
   18.9210   19.9500   20.8277 O   0  0  0  0  0  0  0  0  0  0  0  0
   18.5888   19.2429   20.2380 H   0  0  0  0  0  0  0  0  0  0  0  0
  1  2  1  0  0  0  0
  1  3  1  0  0  0  0
  1  4  1  0  0  0  0
  4  5  1  0  0  0  0
  4  6  1  0  0  0  0
  4  7  1  0  0  0  0
  7  8  1  0  0  0  0
  7  9  1  0  0  0  0
  7 10  1  0  0  0  0
 10 11  1  0  0  0  0
 10 12  1  0  0  0  0
 10 13  1  0  0  0  0
 13 14  1  0  0  0  0
 13 15  1  0  0  0  0
 15 16  1  0  0  0  0
 15 17  1  0  0  0  0
  1 18  1  0  0  0  0
 15 18  1  0  0  0  0
 18 19  1  0  0  0  0
 18 20  1  0  0  0  0
 13 21  1  0  0  0  0
 21 22  1  0  0  0  0
M  END
> <VConfSearch Rank>
702

> <Conf_Id>
104

> <Delta U+W>
-1.172

> <U+W>
5.252

> <U>
7.482

> <W>
-2.230

> <W(PB)>
-4.220

> <W(SA)>
1.990

> <Valence>
12.309

> <Coulomb>
-7.084

> <VdW>
2.258

> <VdW6>
-9.770

> <VdW12>
12.028

> <Bond>
0.284

> <Angle>
3.491

> <Pdih>
8.535

> <Idih>
0.000

> <Tether>
0.000

$$$$
VeraChem MOL file


 22 22  0  0  0  0  0  0  0  0999 V2000     
   21.5902   19.8987   23.1974 C   0  0  0  0  0  0  0  0  0  0  0  0
   22.0435   19.6605   22.2256 H   0  0  0  0  0  0  0  0  0  0  0  0
   22.4243   20.1527   23.8657 H   0  0  0  0  0  0  0  0  0  0  0  0
   20.8700   18.6650   23.7880 C   0  0  0  0  0  0  0  0  0  0  0  0
   21.6220   18.0033   24.2395 H   0  0  0  0  0  0  0  0  0  0  0  0
   20.2322   18.9817   24.6235 H   0  0  0  0  0  0  0  0  0  0  0  0
   20.0446   17.8238   22.7817 C   0  0  0  0  0  0  0  0  0  0  0  0
   19.2568   17.2941   23.3350 H   0  0  0  0  0  0  0  0  0  0  0  0
   20.6928   17.0365   22.3731 H   0  0  0  0  0  0  0  0  0  0  0  0
   19.4071   18.5745   21.5811 C   0  0  0  0  0  0  0  0  0  0  0  0
   20.1773   18.7527   20.8195 H   0  0  0  0  0  0  0  0  0  0  0  0
   18.6831   17.9002   21.1057 H   0  0  0  0  0  0  0  0  0  0  0  0
   18.6914   19.9106   21.8855 C   0  0  0  0  0  0  0  0  0  0  0  0
   17.9856   20.0980   21.0635 H   0  0  0  0  0  0  0  0  0  0  0  0
   19.6596   21.1144   21.9262 C   0  0  0  0  0  0  0  0  0  0  0  0
   20.2068   21.1578   20.9755 H   0  0  0  0  0  0  0  0  0  0  0  0
   19.0608   22.0338   21.9646 H   0  0  0  0  0  0  0  0  0  0  0  0
   20.6776   21.1438   23.0930 C   0  0  0  0  0  0  0  0  0  0  0  0
   21.3152   22.0285   22.9607 H   0  0  0  0  0  0  0  0  0  0  0  0
   20.1501   21.3000   24.0437 H   0  0  0  0  0  0  0  0  0  0  0  0
   17.9684   19.8227   23.1035 O   0  0  0  0  0  0  0  0  0  0  0  0
   18.6444   19.5740   23.7648 H   0  0  0  0  0  0  0  0  0  0  0  0
  1  2  1  0  0  0  0
  1  3  1  0  0  0  0
  1  4  1  0  0  0  0
  4  5  1  0  0  0  0
  4  6  1  0  0  0  0
  4  7  1  0  0  0  0
  7  8  1  0  0  0  0
  7  9  1  0  0  0  0
  7 10  1  0  0  0  0
 10 11  1  0  0  0  0
 10 12  1  0  0  0  0
 10 13  1  0  0  0  0
 13 14  1  0  0  0  0
 13 15  1  0  0  0  0
 15 16  1  0  0  0  0
 15 17  1  0  0  0  0
  1 18  1  0  0  0  0
 15 18  1  0  0  0  0
 18 19  1  0  0  0  0
 18 20  1  0  0  0  0
 13 21  1  0  0  0  0
 21 22  1  0  0  0  0
M  END
> <VConfSearch Rank>
703

> <Conf_Id>
99

> <Delta U+W>
-3.852

> <U+W>
2.572

> <U>
3.922

> <W>
-1.350

> <W(PB)>
-3.345

> <W(SA)>
1.995

> <Valence>
12.571

> <Coulomb>
-10.581

> <VdW>
1.932

> <VdW6>
-10.483

> <VdW12>
12.415

> <Bond>
0.268

> <Angle>
3.728

> <Pdih>
8.575

> <Idih>
0.000

> <Tether>
0.000

$$$$
VeraChem MOL file


 22 22  0  0  0  0  0  0  0  0999 V2000     
   19.8611   18.8603   21.1945 C   0  0  0  0  0  0  0  0  0  0  0  0
   19.9088   17.9867   20.5298 H   0  0  0  0  0  0  0  0  0  0  0  0
   19.4492   19.6666   20.5730 H   0  0  0  0  0  0  0  0  0  0  0  0
   21.3146   19.2083   21.6306 C   0  0  0  0  0  0  0  0  0  0  0  0
   21.9914   18.4854   21.1546 H   0  0  0  0  0  0  0  0  0  0  0  0
   21.6092   20.1839   21.2212 H   0  0  0  0  0  0  0  0  0  0  0  0
   21.5909   19.1806   23.1556 C   0  0  0  0  0  0  0  0  0  0  0  0
   22.6761   19.2488   23.3123 H   0  0  0  0  0  0  0  0  0  0  0  0
   21.3145   18.2008   23.5643 H   0  0  0  0  0  0  0  0  0  0  0  0
   20.9186   20.3058   23.9904 C   0  0  0  0  0  0  0  0  0  0  0  0
   20.8534   19.9673   25.0324 H   0  0  0  0  0  0  0  0  0  0  0  0
   21.5918   21.1733   24.0088 H   0  0  0  0  0  0  0  0  0  0  0  0
   19.5217   20.8088   23.5501 C   0  0  0  0  0  0  0  0  0  0  0  0
   19.1280   21.4202   24.3746 H   0  0  0  0  0  0  0  0  0  0  0  0
   18.4630   19.7182   23.2533 C   0  0  0  0  0  0  0  0  0  0  0  0
   18.1074   19.3105   24.2083 H   0  0  0  0  0  0  0  0  0  0  0  0
   17.5914   20.2159   22.8078 H   0  0  0  0  0  0  0  0  0  0  0  0
   18.8696   18.5293   22.3391 C   0  0  0  0  0  0  0  0  0  0  0  0
   19.2702   17.7116   22.9511 H   0  0  0  0  0  0  0  0  0  0  0  0
   17.9528   18.1181   21.8951 H   0  0  0  0  0  0  0  0  0  0  0  0
   19.6558   21.6611   22.4237 O   0  0  0  0  0  0  0  0  0  0  0  0
   20.0062   21.0744   21.7237 H   0  0  0  0  0  0  0  0  0  0  0  0
  1  2  1  0  0  0  0
  1  3  1  0  0  0  0
  1  4  1  0  0  0  0
  4  5  1  0  0  0  0
  4  6  1  0  0  0  0
  4  7  1  0  0  0  0
  7  8  1  0  0  0  0
  7  9  1  0  0  0  0
  7 10  1  0  0  0  0
 10 11  1  0  0  0  0
 10 12  1  0  0  0  0
 10 13  1  0  0  0  0
 13 14  1  0  0  0  0
 13 15  1  0  0  0  0
 15 16  1  0  0  0  0
 15 17  1  0  0  0  0
  1 18  1  0  0  0  0
 15 18  1  0  0  0  0
 18 19  1  0  0  0  0
 18 20  1  0  0  0  0
 13 21  1  0  0  0  0
 21 22  1  0  0  0  0
M  END
> <VConfSearch Rank>
704

> <Conf_Id>
98

> <Delta U+W>
0.930

> <U+W>
7.353

> <U>
8.455

> <W>
-1.102

> <W(PB)>
-3.101

> <W(SA)>
2.000

> <Valence>
15.601

> <Coulomb>
-10.573

> <VdW>
3.427

> <VdW6>
-11.360

> <VdW12>
14.787

> <Bond>
0.471

> <Angle>
5.445

> <Pdih>
9.685

> <Idih>
0.000

> <Tether>
0.000

$$$$
VeraChem MOL file


 22 22  0  0  0  0  0  0  0  0999 V2000     
   19.7594   19.2035   24.3222 C   0  0  0  0  0  0  0  0  0  0  0  0
   20.7131   19.7110   24.5160 H   0  0  0  0  0  0  0  0  0  0  0  0
   19.3704   18.9388   25.3149 H   0  0  0  0  0  0  0  0  0  0  0  0
   20.0131   17.8973   23.5275 C   0  0  0  0  0  0  0  0  0  0  0  0
   20.6808   17.2674   24.1310 H   0  0  0  0  0  0  0  0  0  0  0  0
   19.0744   17.3339   23.4367 H   0  0  0  0  0  0  0  0  0  0  0  0
   20.6474   18.0630   22.1186 C   0  0  0  0  0  0  0  0  0  0  0  0
   19.8809   17.9348   21.3433 H   0  0  0  0  0  0  0  0  0  0  0  0
   21.3509   17.2343   21.9602 H   0  0  0  0  0  0  0  0  0  0  0  0
   21.3968   19.4021   21.8888 C   0  0  0  0  0  0  0  0  0  0  0  0
   22.1172   19.5555   22.7019 H   0  0  0  0  0  0  0  0  0  0  0  0
   22.0108   19.3027   20.9835 H   0  0  0  0  0  0  0  0  0  0  0  0
   20.5010   20.6682   21.7537 C   0  0  0  0  0  0  0  0  0  0  0  0
   20.9380   21.4607   22.3783 H   0  0  0  0  0  0  0  0  0  0  0  0
   19.0168   20.4943   22.1625 C   0  0  0  0  0  0  0  0  0  0  0  0
   18.4684   21.4108   21.9088 H   0  0  0  0  0  0  0  0  0  0  0  0
   18.5557   19.7081   21.5527 H   0  0  0  0  0  0  0  0  0  0  0  0
   18.7718   20.1946   23.6625 C   0  0  0  0  0  0  0  0  0  0  0  0
   18.8085   21.1380   24.2241 H   0  0  0  0  0  0  0  0  0  0  0  0
   17.7479   19.8142   23.7790 H   0  0  0  0  0  0  0  0  0  0  0  0
   20.5221   21.0924   20.3954 O   0  0  0  0  0  0  0  0  0  0  0  0
   19.9997   21.9201   20.3496 H   0  0  0  0  0  0  0  0  0  0  0  0
  1  2  1  0  0  0  0
  1  3  1  0  0  0  0
  1  4  1  0  0  0  0
  4  5  1  0  0  0  0
  4  6  1  0  0  0  0
  4  7  1  0  0  0  0
  7  8  1  0  0  0  0
  7  9  1  0  0  0  0
  7 10  1  0  0  0  0
 10 11  1  0  0  0  0
 10 12  1  0  0  0  0
 10 13  1  0  0  0  0
 13 14  1  0  0  0  0
 13 15  1  0  0  0  0
 15 16  1  0  0  0  0
 15 17  1  0  0  0  0
  1 18  1  0  0  0  0
 15 18  1  0  0  0  0
 18 19  1  0  0  0  0
 18 20  1  0  0  0  0
 13 21  1  0  0  0  0
 21 22  1  0  0  0  0
M  END
> <VConfSearch Rank>
705

> <Conf_Id>
141

> <Delta U+W>
0.000

> <U+W>
6.423

> <U>
8.781

> <W>
-2.358

> <W(PB)>
-4.373

> <W(SA)>
2.015

> <Valence>
13.328

> <Coulomb>
-8.387

> <VdW>
3.840

> <VdW6>
-9.744

> <VdW12>
13.584

> <Bond>
0.436

> <Angle>
3.478

> <Pdih>
9.415

> <Idih>
0.000

> <Tether>
0.000

$$$$
VeraChem MOL file


 22 22  0  0  0  0  0  0  0  0999 V2000     
   20.8820   21.1001   22.4725 C   0  0  0  0  0  0  0  0  0  0  0  0
   21.1023   21.0744   23.5483 H   0  0  0  0  0  0  0  0  0  0  0  0
   21.4121   21.9762   22.0748 H   0  0  0  0  0  0  0  0  0  0  0  0
   19.3695   21.3128   22.2221 C   0  0  0  0  0  0  0  0  0  0  0  0
   19.1024   22.3307   22.5376 H   0  0  0  0  0  0  0  0  0  0  0  0
   19.1699   21.2730   21.1425 H   0  0  0  0  0  0  0  0  0  0  0  0
   18.4345   20.3210   22.9518 C   0  0  0  0  0  0  0  0  0  0  0  0
   17.4021   20.5322   22.6415 H   0  0  0  0  0  0  0  0  0  0  0  0
   18.4682   20.5154   24.0325 H   0  0  0  0  0  0  0  0  0  0  0  0
   18.7336   18.8250   22.6874 C   0  0  0  0  0  0  0  0  0  0  0  0
   17.8799   18.2447   23.0615 H   0  0  0  0  0  0  0  0  0  0  0  0
   18.7894   18.6259   21.6094 H   0  0  0  0  0  0  0  0  0  0  0  0
   20.0188   18.3396   23.3947 C   0  0  0  0  0  0  0  0  0  0  0  0
   20.1246   18.8967   24.3367 H   0  0  0  0  0  0  0  0  0  0  0  0
   21.3141   18.5272   22.5723 C   0  0  0  0  0  0  0  0  0  0  0  0
   22.1607   18.4596   23.2677 H   0  0  0  0  0  0  0  0  0  0  0  0
   21.4281   17.6849   21.8768 H   0  0  0  0  0  0  0  0  0  0  0  0
   21.4383   19.8429   21.7639 C   0  0  0  0  0  0  0  0  0  0  0  0
   22.5012   20.0025   21.5365 H   0  0  0  0  0  0  0  0  0  0  0  0
   20.9441   19.7239   20.7901 H   0  0  0  0  0  0  0  0  0  0  0  0
   19.8829   16.9556   23.6933 O   0  0  0  0  0  0  0  0  0  0  0  0
   19.1004   16.8683   24.2771 H   0  0  0  0  0  0  0  0  0  0  0  0
  1  2  1  0  0  0  0
  1  3  1  0  0  0  0
  1  4  1  0  0  0  0
  4  5  1  0  0  0  0
  4  6  1  0  0  0  0
  4  7  1  0  0  0  0
  7  8  1  0  0  0  0
  7  9  1  0  0  0  0
  7 10  1  0  0  0  0
 10 11  1  0  0  0  0
 10 12  1  0  0  0  0
 10 13  1  0  0  0  0
 13 14  1  0  0  0  0
 13 15  1  0  0  0  0
 15 16  1  0  0  0  0
 15 17  1  0  0  0  0
  1 18  1  0  0  0  0
 15 18  1  0  0  0  0
 18 19  1  0  0  0  0
 18 20  1  0  0  0  0
 13 21  1  0  0  0  0
 21 22  1  0  0  0  0
M  END
> <VConfSearch Rank>
706

> <Conf_Id>
144

> <Delta U+W>
-3.291

> <U+W>
3.132

> <U>
5.411

> <W>
-2.279

> <W(PB)>
-4.300

> <W(SA)>
2.021

> <Valence>
11.909

> <Coulomb>
-8.733

> <VdW>
2.236

> <VdW6>
-8.936

> <VdW12>
11.172

> <Bond>
0.223

> <Angle>
2.457

> <Pdih>
9.228

> <Idih>
0.000

> <Tether>
0.000

$$$$
VeraChem MOL file


 22 22  0  0  0  0  0  0  0  0999 V2000     
   21.3692   19.7795   21.7001 C   0  0  0  0  0  0  0  0  0  0  0  0
   22.3483   19.6628   21.2157 H   0  0  0  0  0  0  0  0  0  0  0  0
   20.9566   20.7268   21.3271 H   0  0  0  0  0  0  0  0  0  0  0  0
   21.5961   19.8411   23.2288 C   0  0  0  0  0  0  0  0  0  0  0  0
   21.6896   18.8212   23.6259 H   0  0  0  0  0  0  0  0  0  0  0  0
   22.5643   20.3217   23.4252 H   0  0  0  0  0  0  0  0  0  0  0  0
   20.5125   20.6102   24.0227 C   0  0  0  0  0  0  0  0  0  0  0  0
   20.7410   21.6843   23.9908 H   0  0  0  0  0  0  0  0  0  0  0  0
   20.5917   20.3199   25.0793 H   0  0  0  0  0  0  0  0  0  0  0  0
   19.0495   20.4144   23.5544 C   0  0  0  0  0  0  0  0  0  0  0  0
   18.3896   20.7265   24.3751 H   0  0  0  0  0  0  0  0  0  0  0  0
   18.8408   21.1039   22.7262 H   0  0  0  0  0  0  0  0  0  0  0  0
   18.6906   18.9747   23.1233 C   0  0  0  0  0  0  0  0  0  0  0  0
   19.2470   18.2557   23.7413 H   0  0  0  0  0  0  0  0  0  0  0  0
   18.9868   18.7123   21.6291 C   0  0  0  0  0  0  0  0  0  0  0  0
   18.4853   17.7824   21.3292 H   0  0  0  0  0  0  0  0  0  0  0  0
   18.5379   19.5086   21.0214 H   0  0  0  0  0  0  0  0  0  0  0  0
   20.4861   18.5838   21.2694 C   0  0  0  0  0  0  0  0  0  0  0  0
   20.8870   17.6585   21.7053 H   0  0  0  0  0  0  0  0  0  0  0  0
   20.5685   18.4619   20.1808 H   0  0  0  0  0  0  0  0  0  0  0  0
   17.2984   18.7794   23.3328 O   0  0  0  0  0  0  0  0  0  0  0  0
   16.8392   19.4359   22.7696 H   0  0  0  0  0  0  0  0  0  0  0  0
  1  2  1  0  0  0  0
  1  3  1  0  0  0  0
  1  4  1  0  0  0  0
  4  5  1  0  0  0  0
  4  6  1  0  0  0  0
  4  7  1  0  0  0  0
  7  8  1  0  0  0  0
  7  9  1  0  0  0  0
  7 10  1  0  0  0  0
 10 11  1  0  0  0  0
 10 12  1  0  0  0  0
 10 13  1  0  0  0  0
 13 14  1  0  0  0  0
 13 15  1  0  0  0  0
 15 16  1  0  0  0  0
 15 17  1  0  0  0  0
  1 18  1  0  0  0  0
 15 18  1  0  0  0  0
 18 19  1  0  0  0  0
 18 20  1  0  0  0  0
 13 21  1  0  0  0  0
 21 22  1  0  0  0  0
M  END
> <VConfSearch Rank>
707

> <Conf_Id>
76

> <Delta U+W>
-3.175

> <U+W>
3.248

> <U>
5.336

> <W>
-2.088

> <W(PB)>
-4.098

> <W(SA)>
2.010

> <Valence>
12.390

> <Coulomb>
-9.270

> <VdW>
2.216

> <VdW6>
-8.967

> <VdW12>
11.183

> <Bond>
0.218

> <Angle>
2.426

> <Pdih>
9.745

> <Idih>
0.000

> <Tether>
0.000

$$$$
VeraChem MOL file


 22 22  0  0  0  0  0  0  0  0999 V2000     
   20.3126   19.1616   24.5046 C   0  0  0  0  0  0  0  0  0  0  0  0
   19.6626   19.4524   25.3410 H   0  0  0  0  0  0  0  0  0  0  0  0
   21.0912   18.5211   24.9409 H   0  0  0  0  0  0  0  0  0  0  0  0
   20.9746   20.4407   23.9387 C   0  0  0  0  0  0  0  0  0  0  0  0
   20.2596   21.2735   23.9821 H   0  0  0  0  0  0  0  0  0  0  0  0
   21.7960   20.7237   24.6110 H   0  0  0  0  0  0  0  0  0  0  0  0
   21.5258   20.3104   22.4996 C   0  0  0  0  0  0  0  0  0  0  0  0
   21.9637   19.3166   22.3344 H   0  0  0  0  0  0  0  0  0  0  0  0
   22.3483   21.0289   22.3831 H   0  0  0  0  0  0  0  0  0  0  0  0
   20.4625   20.6309   21.4185 C   0  0  0  0  0  0  0  0  0  0  0  0
   19.9922   21.5952   21.6497 H   0  0  0  0  0  0  0  0  0  0  0  0
   20.9729   20.7748   20.4572 H   0  0  0  0  0  0  0  0  0  0  0  0
   19.3543   19.5727   21.2156 C   0  0  0  0  0  0  0  0  0  0  0  0
   18.5970   20.0282   20.5613 H   0  0  0  0  0  0  0  0  0  0  0  0
   18.6284   19.1223   22.5082 C   0  0  0  0  0  0  0  0  0  0  0  0
   18.1947   19.9943   23.0144 H   0  0  0  0  0  0  0  0  0  0  0  0
   17.7755   18.4995   22.2089 H   0  0  0  0  0  0  0  0  0  0  0  0
   19.4973   18.3095   23.5029 C   0  0  0  0  0  0  0  0  0  0  0  0
   18.8430   17.6435   24.0815 H   0  0  0  0  0  0  0  0  0  0  0  0
   20.1764   17.6443   22.9536 H   0  0  0  0  0  0  0  0  0  0  0  0
   19.9008   18.4432   20.5421 O   0  0  0  0  0  0  0  0  0  0  0  0
   19.1828   17.7806   20.4810 H   0  0  0  0  0  0  0  0  0  0  0  0
  1  2  1  0  0  0  0
  1  3  1  0  0  0  0
  1  4  1  0  0  0  0
  4  5  1  0  0  0  0
  4  6  1  0  0  0  0
  4  7  1  0  0  0  0
  7  8  1  0  0  0  0
  7  9  1  0  0  0  0
  7 10  1  0  0  0  0
 10 11  1  0  0  0  0
 10 12  1  0  0  0  0
 10 13  1  0  0  0  0
 13 14  1  0  0  0  0
 13 15  1  0  0  0  0
 15 16  1  0  0  0  0
 15 17  1  0  0  0  0
  1 18  1  0  0  0  0
 15 18  1  0  0  0  0
 18 19  1  0  0  0  0
 18 20  1  0  0  0  0
 13 21  1  0  0  0  0
 21 22  1  0  0  0  0
M  END
> <VConfSearch Rank>
708

> <Conf_Id>
95

> <Delta U+W>
-2.289

> <U+W>
4.134

> <U>
6.373

> <W>
-2.240

> <W(PB)>
-4.254

> <W(SA)>
2.015

> <Valence>
12.093

> <Coulomb>
-8.058

> <VdW>
2.339

> <VdW6>
-9.683

> <VdW12>
12.022

> <Bond>
0.268

> <Angle>
3.005

> <Pdih>
8.820

> <Idih>
0.000

> <Tether>
0.000

$$$$
VeraChem MOL file


 22 22  0  0  0  0  0  0  0  0999 V2000     
   18.3623   20.3907   22.2154 C   0  0  0  0  0  0  0  0  0  0  0  0
   18.1297   21.0031   21.3336 H   0  0  0  0  0  0  0  0  0  0  0  0
   17.4112   20.2660   22.7508 H   0  0  0  0  0  0  0  0  0  0  0  0
   19.3414   21.1855   23.1120 C   0  0  0  0  0  0  0  0  0  0  0  0
   20.0330   21.7588   22.4800 H   0  0  0  0  0  0  0  0  0  0  0  0
   18.7609   21.9353   23.6667 H   0  0  0  0  0  0  0  0  0  0  0  0
   20.1496   20.3321   24.1170 C   0  0  0  0  0  0  0  0  0  0  0  0
   19.5354   19.5173   24.5241 H   0  0  0  0  0  0  0  0  0  0  0  0
   20.4135   20.9708   24.9707 H   0  0  0  0  0  0  0  0  0  0  0  0
   21.4668   19.7843   23.5119 C   0  0  0  0  0  0  0  0  0  0  0  0
   22.0149   20.6094   23.0390 H   0  0  0  0  0  0  0  0  0  0  0  0
   22.1115   19.4380   24.3301 H   0  0  0  0  0  0  0  0  0  0  0  0
   21.3210   18.6360   22.4874 C   0  0  0  0  0  0  0  0  0  0  0  0
   22.3113   18.4883   22.0327 H   0  0  0  0  0  0  0  0  0  0  0  0
   20.3265   18.9084   21.3311 C   0  0  0  0  0  0  0  0  0  0  0  0
   20.6192   19.8183   20.7917 H   0  0  0  0  0  0  0  0  0  0  0  0
   20.4325   18.0862   20.6117 H   0  0  0  0  0  0  0  0  0  0  0  0
   18.8355   18.9930   21.7497 C   0  0  0  0  0  0  0  0  0  0  0  0
   18.2123   18.6928   20.8966 H   0  0  0  0  0  0  0  0  0  0  0  0
   18.6260   18.2551   22.5353 H   0  0  0  0  0  0  0  0  0  0  0  0
   20.9627   17.4376   23.1689 O   0  0  0  0  0  0  0  0  0  0  0  0
   21.6090   17.3229   23.8952 H   0  0  0  0  0  0  0  0  0  0  0  0
  1  2  1  0  0  0  0
  1  3  1  0  0  0  0
  1  4  1  0  0  0  0
  4  5  1  0  0  0  0
  4  6  1  0  0  0  0
  4  7  1  0  0  0  0
  7  8  1  0  0  0  0
  7  9  1  0  0  0  0
  7 10  1  0  0  0  0
 10 11  1  0  0  0  0
 10 12  1  0  0  0  0
 10 13  1  0  0  0  0
 13 14  1  0  0  0  0
 13 15  1  0  0  0  0
 15 16  1  0  0  0  0
 15 17  1  0  0  0  0
  1 18  1  0  0  0  0
 15 18  1  0  0  0  0
 18 19  1  0  0  0  0
 18 20  1  0  0  0  0
 13 21  1  0  0  0  0
 21 22  1  0  0  0  0
M  END
> <VConfSearch Rank>
709

> <Conf_Id>
41

> <Delta U+W>
-2.114

> <U+W>
4.310

> <U>
6.598

> <W>
-2.289

> <W(PB)>
-4.294

> <W(SA)>
2.005

> <Valence>
12.082

> <Coulomb>
-7.801

> <VdW>
2.317

> <VdW6>
-9.658

> <VdW12>
11.975

> <Bond>
0.267

> <Angle>
3.051

> <Pdih>
8.764

> <Idih>
0.000

> <Tether>
0.000

$$$$
VeraChem MOL file


 22 22  0  0  0  0  0  0  0  0999 V2000     
   20.8510   20.6552   21.7443 C   0  0  0  0  0  0  0  0  0  0  0  0
   21.3184   21.2101   20.9196 H   0  0  0  0  0  0  0  0  0  0  0  0
   20.6057   21.3983   22.5155 H   0  0  0  0  0  0  0  0  0  0  0  0
   21.8843   19.6367   22.2757 C   0  0  0  0  0  0  0  0  0  0  0  0
   22.0686   18.8681   21.5129 H   0  0  0  0  0  0  0  0  0  0  0  0
   22.8429   20.1529   22.4208 H   0  0  0  0  0  0  0  0  0  0  0  0
   21.4940   18.9582   23.6071 C   0  0  0  0  0  0  0  0  0  0  0  0
   21.5173   19.7004   24.4160 H   0  0  0  0  0  0  0  0  0  0  0  0
   22.2752   18.2275   23.8561 H   0  0  0  0  0  0  0  0  0  0  0  0
   20.1250   18.2254   23.5978 C   0  0  0  0  0  0  0  0  0  0  0  0
   20.0710   17.5390   22.7433 H   0  0  0  0  0  0  0  0  0  0  0  0
   20.0826   17.5898   24.4916 H   0  0  0  0  0  0  0  0  0  0  0  0
   18.8687   19.1337   23.6234 C   0  0  0  0  0  0  0  0  0  0  0  0
   18.0264   18.4980   23.9328 H   0  0  0  0  0  0  0  0  0  0  0  0
   18.4593   19.7610   22.2655 C   0  0  0  0  0  0  0  0  0  0  0  0
   17.6938   19.1177   21.8123 H   0  0  0  0  0  0  0  0  0  0  0  0
   17.9569   20.7194   22.4512 H   0  0  0  0  0  0  0  0  0  0  0  0
   19.5693   19.9803   21.2078 C   0  0  0  0  0  0  0  0  0  0  0  0
   19.8242   19.0243   20.7309 H   0  0  0  0  0  0  0  0  0  0  0  0
   19.1514   20.6062   20.4076 H   0  0  0  0  0  0  0  0  0  0  0  0
   19.0156   20.1601   24.6011 O   0  0  0  0  0  0  0  0  0  0  0  0
   18.1822   20.6733   24.5997 H   0  0  0  0  0  0  0  0  0  0  0  0
  1  2  1  0  0  0  0
  1  3  1  0  0  0  0
  1  4  1  0  0  0  0
  4  5  1  0  0  0  0
  4  6  1  0  0  0  0
  4  7  1  0  0  0  0
  7  8  1  0  0  0  0
  7  9  1  0  0  0  0
  7 10  1  0  0  0  0
 10 11  1  0  0  0  0
 10 12  1  0  0  0  0
 10 13  1  0  0  0  0
 13 14  1  0  0  0  0
 13 15  1  0  0  0  0
 15 16  1  0  0  0  0
 15 17  1  0  0  0  0
  1 18  1  0  0  0  0
 15 18  1  0  0  0  0
 18 19  1  0  0  0  0
 18 20  1  0  0  0  0
 13 21  1  0  0  0  0
 21 22  1  0  0  0  0
M  END
> <VConfSearch Rank>
710

> <Conf_Id>
104

> <Delta U+W>
-1.172

> <U+W>
5.252

> <U>
7.482

> <W>
-2.230

> <W(PB)>
-4.220

> <W(SA)>
1.990

> <Valence>
12.309

> <Coulomb>
-7.084

> <VdW>
2.258

> <VdW6>
-9.770

> <VdW12>
12.028

> <Bond>
0.284

> <Angle>
3.491

> <Pdih>
8.535

> <Idih>
0.000

> <Tether>
0.000

$$$$
VeraChem MOL file


 22 22  0  0  0  0  0  0  0  0999 V2000     
   19.6065   18.5657   21.4638 C   0  0  0  0  0  0  0  0  0  0  0  0
   19.9127   17.6698   22.0207 H   0  0  0  0  0  0  0  0  0  0  0  0
   19.2349   18.2064   20.4943 H   0  0  0  0  0  0  0  0  0  0  0  0
   20.8168   19.4885   21.1937 C   0  0  0  0  0  0  0  0  0  0  0  0
   21.3815   19.0853   20.3417 H   0  0  0  0  0  0  0  0  0  0  0  0
   20.4579   20.4700   20.8573 H   0  0  0  0  0  0  0  0  0  0  0  0
   21.8050   19.6629   22.3746 C   0  0  0  0  0  0  0  0  0  0  0  0
   22.3242   20.6238   22.2547 H   0  0  0  0  0  0  0  0  0  0  0  0
   22.5876   18.8966   22.2889 H   0  0  0  0  0  0  0  0  0  0  0  0
   21.2204   19.5756   23.8105 C   0  0  0  0  0  0  0  0  0  0  0  0
   21.0722   18.5203   24.0741 H   0  0  0  0  0  0  0  0  0  0  0  0
   21.9830   19.9423   24.5097 H   0  0  0  0  0  0  0  0  0  0  0  0
   19.9076   20.3447   24.0846 C   0  0  0  0  0  0  0  0  0  0  0  0
   19.8484   20.5142   25.1693 H   0  0  0  0  0  0  0  0  0  0  0  0
   18.6478   19.5421   23.6884 C   0  0  0  0  0  0  0  0  0  0  0  0
   18.6665   18.5774   24.2119 H   0  0  0  0  0  0  0  0  0  0  0  0
   17.7684   20.0721   24.0768 H   0  0  0  0  0  0  0  0  0  0  0  0
   18.4375   19.2879   22.1751 C   0  0  0  0  0  0  0  0  0  0  0  0
   17.5327   18.6758   22.0595 H   0  0  0  0  0  0  0  0  0  0  0  0
   18.2195   20.2358   21.6650 H   0  0  0  0  0  0  0  0  0  0  0  0
   19.9171   21.5994   23.4214 O   0  0  0  0  0  0  0  0  0  0  0  0
   20.0553   21.3709   22.4807 H   0  0  0  0  0  0  0  0  0  0  0  0
  1  2  1  0  0  0  0
  1  3  1  0  0  0  0
  1  4  1  0  0  0  0
  4  5  1  0  0  0  0
  4  6  1  0  0  0  0
  4  7  1  0  0  0  0
  7  8  1  0  0  0  0
  7  9  1  0  0  0  0
  7 10  1  0  0  0  0
 10 11  1  0  0  0  0
 10 12  1  0  0  0  0
 10 13  1  0  0  0  0
 13 14  1  0  0  0  0
 13 15  1  0  0  0  0
 15 16  1  0  0  0  0
 15 17  1  0  0  0  0
  1 18  1  0  0  0  0
 15 18  1  0  0  0  0
 18 19  1  0  0  0  0
 18 20  1  0  0  0  0
 13 21  1  0  0  0  0
 21 22  1  0  0  0  0
M  END
> <VConfSearch Rank>
711

> <Conf_Id>
99

> <Delta U+W>
-3.852

> <U+W>
2.572

> <U>
3.922

> <W>
-1.350

> <W(PB)>
-3.345

> <W(SA)>
1.995

> <Valence>
12.571

> <Coulomb>
-10.581

> <VdW>
1.932

> <VdW6>
-10.483

> <VdW12>
12.415

> <Bond>
0.268

> <Angle>
3.728

> <Pdih>
8.575

> <Idih>
0.000

> <Tether>
0.000

$$$$
VeraChem MOL file


 22 22  0  0  0  0  0  0  0  0999 V2000     
   18.9627   20.1955   21.5910 C   0  0  0  0  0  0  0  0  0  0  0  0
   18.6078   20.3740   20.5666 H   0  0  0  0  0  0  0  0  0  0  0  0
   18.1818   20.6162   22.2385 H   0  0  0  0  0  0  0  0  0  0  0  0
   20.2947   20.9794   21.7782 C   0  0  0  0  0  0  0  0  0  0  0  0
   20.5162   21.4974   20.8348 H   0  0  0  0  0  0  0  0  0  0  0  0
   20.1613   21.7812   22.5168 H   0  0  0  0  0  0  0  0  0  0  0  0
   21.5357   20.1297   22.1531 C   0  0  0  0  0  0  0  0  0  0  0  0
   22.4290   20.7627   22.0632 H   0  0  0  0  0  0  0  0  0  0  0  0
   21.6822   19.3389   21.4070 H   0  0  0  0  0  0  0  0  0  0  0  0
   21.5328   19.5117   23.5789 C   0  0  0  0  0  0  0  0  0  0  0  0
   22.2184   18.6545   23.5825 H   0  0  0  0  0  0  0  0  0  0  0  0
   21.9743   20.2391   24.2730 H   0  0  0  0  0  0  0  0  0  0  0  0
   20.1784   19.0585   24.1774 C   0  0  0  0  0  0  0  0  0  0  0  0
   20.4084   18.4553   25.0674 H   0  0  0  0  0  0  0  0  0  0  0  0
   19.2823   18.1874   23.2629 C   0  0  0  0  0  0  0  0  0  0  0  0
   19.7017   17.1737   23.2293 H   0  0  0  0  0  0  0  0  0  0  0  0
   18.3078   18.0819   23.7581 H   0  0  0  0  0  0  0  0  0  0  0  0
   19.0418   18.6619   21.8028 C   0  0  0  0  0  0  0  0  0  0  0  0
   19.8089   18.2362   21.1440 H   0  0  0  0  0  0  0  0  0  0  0  0
   18.1005   18.2152   21.4551 H   0  0  0  0  0  0  0  0  0  0  0  0
   19.4489   20.1931   24.6177 O   0  0  0  0  0  0  0  0  0  0  0  0
   19.2703   20.6927   23.7959 H   0  0  0  0  0  0  0  0  0  0  0  0
  1  2  1  0  0  0  0
  1  3  1  0  0  0  0
  1  4  1  0  0  0  0
  4  5  1  0  0  0  0
  4  6  1  0  0  0  0
  4  7  1  0  0  0  0
  7  8  1  0  0  0  0
  7  9  1  0  0  0  0
  7 10  1  0  0  0  0
 10 11  1  0  0  0  0
 10 12  1  0  0  0  0
 10 13  1  0  0  0  0
 13 14  1  0  0  0  0
 13 15  1  0  0  0  0
 15 16  1  0  0  0  0
 15 17  1  0  0  0  0
  1 18  1  0  0  0  0
 15 18  1  0  0  0  0
 18 19  1  0  0  0  0
 18 20  1  0  0  0  0
 13 21  1  0  0  0  0
 21 22  1  0  0  0  0
M  END
> <VConfSearch Rank>
712

> <Conf_Id>
98

> <Delta U+W>
0.930

> <U+W>
7.353

> <U>
8.455

> <W>
-1.102

> <W(PB)>
-3.101

> <W(SA)>
2.000

> <Valence>
15.601

> <Coulomb>
-10.573

> <VdW>
3.427

> <VdW6>
-11.360

> <VdW12>
14.787

> <Bond>
0.471

> <Angle>
5.445

> <Pdih>
9.685

> <Idih>
0.000

> <Tether>
0.000

$$$$
VeraChem MOL file


 22 22  0  0  0  0  0  0  0  0999 V2000     
   20.4781   18.0143   23.3117 C   0  0  0  0  0  0  0  0  0  0  0  0
   21.3823   18.5103   23.6874 H   0  0  0  0  0  0  0  0  0  0  0  0
   20.5436   16.9826   23.6833 H   0  0  0  0  0  0  0  0  0  0  0  0
   20.5030   17.9830   21.7623 C   0  0  0  0  0  0  0  0  0  0  0  0
   21.4079   17.4400   21.4571 H   0  0  0  0  0  0  0  0  0  0  0  0
   19.6586   17.3853   21.3930 H   0  0  0  0  0  0  0  0  0  0  0  0
   20.5030   19.3629   21.0477 C   0  0  0  0  0  0  0  0  0  0  0  0
   19.5042   19.5792   20.6471 H   0  0  0  0  0  0  0  0  0  0  0  0
   21.1523   19.2911   20.1645 H   0  0  0  0  0  0  0  0  0  0  0  0
   20.9799   20.5545   21.9197 C   0  0  0  0  0  0  0  0  0  0  0  0
   21.9496   20.3064   22.3687 H   0  0  0  0  0  0  0  0  0  0  0  0
   21.1858   21.4060   21.2572 H   0  0  0  0  0  0  0  0  0  0  0  0
   20.0001   21.0126   23.0395 C   0  0  0  0  0  0  0  0  0  0  0  0
   20.5812   21.1493   23.9630 H   0  0  0  0  0  0  0  0  0  0  0  0
   18.8249   20.0508   23.3461 C   0  0  0  0  0  0  0  0  0  0  0  0
   18.1445   20.5364   24.0576 H   0  0  0  0  0  0  0  0  0  0  0  0
   18.2273   19.8975   22.4394 H   0  0  0  0  0  0  0  0  0  0  0  0
   19.2280   18.6768   23.9371 C   0  0  0  0  0  0  0  0  0  0  0  0
   19.4056   18.7918   25.0150 H   0  0  0  0  0  0  0  0  0  0  0  0
   18.3732   17.9932   23.8438 H   0  0  0  0  0  0  0  0  0  0  0  0
   19.4389   22.2649   22.6627 O   0  0  0  0  0  0  0  0  0  0  0  0
   18.8731   22.5567   23.4075 H   0  0  0  0  0  0  0  0  0  0  0  0
  1  2  1  0  0  0  0
  1  3  1  0  0  0  0
  1  4  1  0  0  0  0
  4  5  1  0  0  0  0
  4  6  1  0  0  0  0
  4  7  1  0  0  0  0
  7  8  1  0  0  0  0
  7  9  1  0  0  0  0
  7 10  1  0  0  0  0
 10 11  1  0  0  0  0
 10 12  1  0  0  0  0
 10 13  1  0  0  0  0
 13 14  1  0  0  0  0
 13 15  1  0  0  0  0
 15 16  1  0  0  0  0
 15 17  1  0  0  0  0
  1 18  1  0  0  0  0
 15 18  1  0  0  0  0
 18 19  1  0  0  0  0
 18 20  1  0  0  0  0
 13 21  1  0  0  0  0
 21 22  1  0  0  0  0
M  END
> <VConfSearch Rank>
713

> <Conf_Id>
141

> <Delta U+W>
0.000

> <U+W>
6.423

> <U>
8.781

> <W>
-2.358

> <W(PB)>
-4.373

> <W(SA)>
2.015

> <Valence>
13.328

> <Coulomb>
-8.387

> <VdW>
3.840

> <VdW6>
-9.744

> <VdW12>
13.584

> <Bond>
0.436

> <Angle>
3.478

> <Pdih>
9.415

> <Idih>
0.000

> <Tether>
0.000

$$$$
VeraChem MOL file


 22 22  0  0  0  0  0  0  0  0999 V2000     
   20.9070   20.2544   23.9978 C   0  0  0  0  0  0  0  0  0  0  0  0
   21.4380   20.9043   23.2890 H   0  0  0  0  0  0  0  0  0  0  0  0
   21.2897   20.5150   24.9940 H   0  0  0  0  0  0  0  0  0  0  0  0
   21.2417   18.7652   23.7409 C   0  0  0  0  0  0  0  0  0  0  0  0
   22.2926   18.5913   24.0099 H   0  0  0  0  0  0  0  0  0  0  0  0
   20.6515   18.1367   24.4218 H   0  0  0  0  0  0  0  0  0  0  0  0
   21.0299   18.2830   22.2873 C   0  0  0  0  0  0  0  0  0  0  0  0
   21.2346   17.2043   22.2511 H   0  0  0  0  0  0  0  0  0  0  0  0
   21.7788   18.7521   21.6346 H   0  0  0  0  0  0  0  0  0  0  0  0
   19.6144   18.5369   21.7137 C   0  0  0  0  0  0  0  0  0  0  0  0
   19.5223   17.9548   20.7874 H   0  0  0  0  0  0  0  0  0  0  0  0
   18.8454   18.1505   22.3950 H   0  0  0  0  0  0  0  0  0  0  0  0
   19.3575   20.0274   21.3972 C   0  0  0  0  0  0  0  0  0  0  0  0
   20.3084   20.4814   21.0834 H   0  0  0  0  0  0  0  0  0  0  0  0
   18.7959   20.8475   22.5809 C   0  0  0  0  0  0  0  0  0  0  0  0
   18.9576   21.9093   22.3545 H   0  0  0  0  0  0  0  0  0  0  0  0
   17.7071   20.7133   22.6318 H   0  0  0  0  0  0  0  0  0  0  0  0
   19.3874   20.5415   23.9797 C   0  0  0  0  0  0  0  0  0  0  0  0
   19.1788   21.4007   24.6317 H   0  0  0  0  0  0  0  0  0  0  0  0
   18.8504   19.6948   24.4285 H   0  0  0  0  0  0  0  0  0  0  0  0
   18.4308   20.1145   20.3216 O   0  0  0  0  0  0  0  0  0  0  0  0
   18.8393   19.6537   19.5591 H   0  0  0  0  0  0  0  0  0  0  0  0
  1  2  1  0  0  0  0
  1  3  1  0  0  0  0
  1  4  1  0  0  0  0
  4  5  1  0  0  0  0
  4  6  1  0  0  0  0
  4  7  1  0  0  0  0
  7  8  1  0  0  0  0
  7  9  1  0  0  0  0
  7 10  1  0  0  0  0
 10 11  1  0  0  0  0
 10 12  1  0  0  0  0
 10 13  1  0  0  0  0
 13 14  1  0  0  0  0
 13 15  1  0  0  0  0
 15 16  1  0  0  0  0
 15 17  1  0  0  0  0
  1 18  1  0  0  0  0
 15 18  1  0  0  0  0
 18 19  1  0  0  0  0
 18 20  1  0  0  0  0
 13 21  1  0  0  0  0
 21 22  1  0  0  0  0
M  END
> <VConfSearch Rank>
714

> <Conf_Id>
144

> <Delta U+W>
-3.291

> <U+W>
3.132

> <U>
5.411

> <W>
-2.279

> <W(PB)>
-4.300

> <W(SA)>
2.021

> <Valence>
11.909

> <Coulomb>
-8.733

> <VdW>
2.236

> <VdW6>
-8.936

> <VdW12>
11.172

> <Bond>
0.223

> <Angle>
2.457

> <Pdih>
9.228

> <Idih>
0.000

> <Tether>
0.000

$$$$
VeraChem MOL file


 22 22  0  0  0  0  0  0  0  0999 V2000     
   21.5801   19.1352   23.0249 C   0  0  0  0  0  0  0  0  0  0  0  0
   22.4879   18.6872   23.4515 H   0  0  0  0  0  0  0  0  0  0  0  0
   21.9224   19.8494   22.2638 H   0  0  0  0  0  0  0  0  0  0  0  0
   20.8253   19.8618   24.1626 C   0  0  0  0  0  0  0  0  0  0  0  0
   20.2228   19.1349   24.7242 H   0  0  0  0  0  0  0  0  0  0  0  0
   21.5579   20.2528   24.8820 H   0  0  0  0  0  0  0  0  0  0  0  0
   19.9286   21.0389   23.7083 C   0  0  0  0  0  0  0  0  0  0  0  0
   20.5478   21.9404   23.6041 H   0  0  0  0  0  0  0  0  0  0  0  0
   19.2164   21.2580   24.5155 H   0  0  0  0  0  0  0  0  0  0  0  0
   19.1464   20.8361   22.3872 C   0  0  0  0  0  0  0  0  0  0  0  0
   18.3295   21.5700   22.3646 H   0  0  0  0  0  0  0  0  0  0  0  0
   19.7974   21.0891   21.5404 H   0  0  0  0  0  0  0  0  0  0  0  0
   18.5703   19.4170   22.1825 C   0  0  0  0  0  0  0  0  0  0  0  0
   18.2699   18.9979   23.1534 H   0  0  0  0  0  0  0  0  0  0  0  0
   19.5736   18.4637   21.4943 C   0  0  0  0  0  0  0  0  0  0  0  0
   19.0327   17.5713   21.1520 H   0  0  0  0  0  0  0  0  0  0  0  0
   19.9722   18.9421   20.5902 H   0  0  0  0  0  0  0  0  0  0  0  0
   20.7513   17.9970   22.3825 C   0  0  0  0  0  0  0  0  0  0  0  0
   20.3718   17.3324   23.1706 H   0  0  0  0  0  0  0  0  0  0  0  0
   21.4210   17.3801   21.7678 H   0  0  0  0  0  0  0  0  0  0  0  0
   17.4222   19.5166   21.3506 O   0  0  0  0  0  0  0  0  0  0  0  0
   17.7286   19.8936   20.5002 H   0  0  0  0  0  0  0  0  0  0  0  0
  1  2  1  0  0  0  0
  1  3  1  0  0  0  0
  1  4  1  0  0  0  0
  4  5  1  0  0  0  0
  4  6  1  0  0  0  0
  4  7  1  0  0  0  0
  7  8  1  0  0  0  0
  7  9  1  0  0  0  0
  7 10  1  0  0  0  0
 10 11  1  0  0  0  0
 10 12  1  0  0  0  0
 10 13  1  0  0  0  0
 13 14  1  0  0  0  0
 13 15  1  0  0  0  0
 15 16  1  0  0  0  0
 15 17  1  0  0  0  0
  1 18  1  0  0  0  0
 15 18  1  0  0  0  0
 18 19  1  0  0  0  0
 18 20  1  0  0  0  0
 13 21  1  0  0  0  0
 21 22  1  0  0  0  0
M  END
> <VConfSearch Rank>
715

> <Conf_Id>
76

> <Delta U+W>
-3.175

> <U+W>
3.248

> <U>
5.336

> <W>
-2.088

> <W(PB)>
-4.098

> <W(SA)>
2.010

> <Valence>
12.390

> <Coulomb>
-9.270

> <VdW>
2.216

> <VdW6>
-8.967

> <VdW12>
11.183

> <Bond>
0.218

> <Angle>
2.426

> <Pdih>
9.745

> <Idih>
0.000

> <Tether>
0.000

$$$$
VeraChem MOL file


 22 22  0  0  0  0  0  0  0  0999 V2000     
   19.1952   21.0569   21.9761 C   0  0  0  0  0  0  0  0  0  0  0  0
   19.3000   21.4680   20.9628 H   0  0  0  0  0  0  0  0  0  0  0  0
   18.4117   21.6551   22.4609 H   0  0  0  0  0  0  0  0  0  0  0  0
   20.5302   21.2754   22.7276 C   0  0  0  0  0  0  0  0  0  0  0  0
   21.3688   21.1490   22.0295 H   0  0  0  0  0  0  0  0  0  0  0  0
   20.5711   22.3252   23.0485 H   0  0  0  0  0  0  0  0  0  0  0  0
   20.7443   20.3651   23.9592 C   0  0  0  0  0  0  0  0  0  0  0  0
   19.8012   20.2055   24.4995 H   0  0  0  0  0  0  0  0  0  0  0  0
   21.4111   20.8880   24.6580 H   0  0  0  0  0  0  0  0  0  0  0  0
   21.4078   19.0120   23.5972 C   0  0  0  0  0  0  0  0  0  0  0  0
   22.3074   19.2003   22.9974 H   0  0  0  0  0  0  0  0  0  0  0  0
   21.7637   18.5380   24.5214 H   0  0  0  0  0  0  0  0  0  0  0  0
   20.5170   17.9924   22.8515 C   0  0  0  0  0  0  0  0  0  0  0  0
   21.1780   17.1810   22.5143 H   0  0  0  0  0  0  0  0  0  0  0  0
   19.7939   18.5426   21.5966 C   0  0  0  0  0  0  0  0  0  0  0  0
   20.5302   18.9494   20.8914 H   0  0  0  0  0  0  0  0  0  0  0  0
   19.3303   17.6912   21.0818 H   0  0  0  0  0  0  0  0  0  0  0  0
   18.6922   19.5967   21.8799 C   0  0  0  0  0  0  0  0  0  0  0  0
   17.9437   19.5503   21.0774 H   0  0  0  0  0  0  0  0  0  0  0  0
   18.1498   19.3372   22.7985 H   0  0  0  0  0  0  0  0  0  0  0  0
   19.5691   17.4430   23.7613 O   0  0  0  0  0  0  0  0  0  0  0  0
   18.9957   16.8454   23.2395 H   0  0  0  0  0  0  0  0  0  0  0  0
  1  2  1  0  0  0  0
  1  3  1  0  0  0  0
  1  4  1  0  0  0  0
  4  5  1  0  0  0  0
  4  6  1  0  0  0  0
  4  7  1  0  0  0  0
  7  8  1  0  0  0  0
  7  9  1  0  0  0  0
  7 10  1  0  0  0  0
 10 11  1  0  0  0  0
 10 12  1  0  0  0  0
 10 13  1  0  0  0  0
 13 14  1  0  0  0  0
 13 15  1  0  0  0  0
 15 16  1  0  0  0  0
 15 17  1  0  0  0  0
  1 18  1  0  0  0  0
 15 18  1  0  0  0  0
 18 19  1  0  0  0  0
 18 20  1  0  0  0  0
 13 21  1  0  0  0  0
 21 22  1  0  0  0  0
M  END
> <VConfSearch Rank>
716

> <Conf_Id>
95

> <Delta U+W>
-2.289

> <U+W>
4.134

> <U>
6.373

> <W>
-2.240

> <W(PB)>
-4.254

> <W(SA)>
2.015

> <Valence>
12.093

> <Coulomb>
-8.058

> <VdW>
2.339

> <VdW6>
-9.683

> <VdW12>
12.022

> <Bond>
0.268

> <Angle>
3.005

> <Pdih>
8.820

> <Idih>
0.000

> <Tether>
0.000

$$$$
VeraChem MOL file


 22 22  0  0  0  0  0  0  0  0999 V2000     
   21.9353   19.6923   22.4323 C   0  0  0  0  0  0  0  0  0  0  0  0
   22.4891   19.5139   21.5004 H   0  0  0  0  0  0  0  0  0  0  0  0
   22.6924   19.9583   23.1825 H   0  0  0  0  0  0  0  0  0  0  0  0
   21.2569   18.3668   22.8534 C   0  0  0  0  0  0  0  0  0  0  0  0
   20.9249   17.8249   21.9575 H   0  0  0  0  0  0  0  0  0  0  0  0
   22.0204   17.7272   23.3168 H   0  0  0  0  0  0  0  0  0  0  0  0
   20.0693   18.5204   23.8318 C   0  0  0  0  0  0  0  0  0  0  0  0
   20.2604   19.3207   24.5597 H   0  0  0  0  0  0  0  0  0  0  0  0
   19.9856   17.5926   24.4137 H   0  0  0  0  0  0  0  0  0  0  0  0
   18.7200   18.7442   23.1033 C   0  0  0  0  0  0  0  0  0  0  0  0
   18.6006   17.9786   22.3258 H   0  0  0  0  0  0  0  0  0  0  0  0
   17.9033   18.5662   23.8148 H   0  0  0  0  0  0  0  0  0  0  0  0
   18.5134   20.1359   22.4628 C   0  0  0  0  0  0  0  0  0  0  0  0
   17.6037   20.0709   21.8486 H   0  0  0  0  0  0  0  0  0  0  0  0
   19.6578   20.6077   21.5311 C   0  0  0  0  0  0  0  0  0  0  0  0
   19.8121   19.8764   20.7274 H   0  0  0  0  0  0  0  0  0  0  0  0
   19.3164   21.5272   21.0383 H   0  0  0  0  0  0  0  0  0  0  0  0
   21.0029   20.9122   22.2406 C   0  0  0  0  0  0  0  0  0  0  0  0
   21.5479   21.6646   21.6549 H   0  0  0  0  0  0  0  0  0  0  0  0
   20.8131   21.3842   23.2136 H   0  0  0  0  0  0  0  0  0  0  0  0
   18.2885   21.0989   23.4880 O   0  0  0  0  0  0  0  0  0  0  0  0
   17.5725   20.7454   24.0541 H   0  0  0  0  0  0  0  0  0  0  0  0
  1  2  1  0  0  0  0
  1  3  1  0  0  0  0
  1  4  1  0  0  0  0
  4  5  1  0  0  0  0
  4  6  1  0  0  0  0
  4  7  1  0  0  0  0
  7  8  1  0  0  0  0
  7  9  1  0  0  0  0
  7 10  1  0  0  0  0
 10 11  1  0  0  0  0
 10 12  1  0  0  0  0
 10 13  1  0  0  0  0
 13 14  1  0  0  0  0
 13 15  1  0  0  0  0
 15 16  1  0  0  0  0
 15 17  1  0  0  0  0
  1 18  1  0  0  0  0
 15 18  1  0  0  0  0
 18 19  1  0  0  0  0
 18 20  1  0  0  0  0
 13 21  1  0  0  0  0
 21 22  1  0  0  0  0
M  END
> <VConfSearch Rank>
717

> <Conf_Id>
41

> <Delta U+W>
-2.114

> <U+W>
4.310

> <U>
6.598

> <W>
-2.289

> <W(PB)>
-4.294

> <W(SA)>
2.005

> <Valence>
12.082

> <Coulomb>
-7.801

> <VdW>
2.317

> <VdW6>
-9.658

> <VdW12>
11.975

> <Bond>
0.267

> <Angle>
3.051

> <Pdih>
8.764

> <Idih>
0.000

> <Tether>
0.000

$$$$
VeraChem MOL file


 22 22  0  0  0  0  0  0  0  0999 V2000     
   19.2835   19.6056   24.1741 C   0  0  0  0  0  0  0  0  0  0  0  0
   18.7805   19.3901   25.1265 H   0  0  0  0  0  0  0  0  0  0  0  0
   19.5753   20.6642   24.2125 H   0  0  0  0  0  0  0  0  0  0  0  0
   18.2681   19.3597   23.0357 C   0  0  0  0  0  0  0  0  0  0  0  0
   18.0374   18.2875   22.9743 H   0  0  0  0  0  0  0  0  0  0  0  0
   17.3234   19.8566   23.2948 H   0  0  0  0  0  0  0  0  0  0  0  0
   18.7185   19.8700   21.6493 C   0  0  0  0  0  0  0  0  0  0  0  0
   18.7440   20.9678   21.6547 H   0  0  0  0  0  0  0  0  0  0  0  0
   17.9435   19.5976   20.9204 H   0  0  0  0  0  0  0  0  0  0  0  0
   20.0776   19.3096   21.1495 C   0  0  0  0  0  0  0  0  0  0  0  0
   20.0811   18.2143   21.2168 H   0  0  0  0  0  0  0  0  0  0  0  0
   20.1589   19.5409   20.0797 H   0  0  0  0  0  0  0  0  0  0  0  0
   21.3429   19.8832   21.8379 C   0  0  0  0  0  0  0  0  0  0  0  0
   22.1933   19.6470   21.1819 H   0  0  0  0  0  0  0  0  0  0  0  0
   21.6893   19.2832   23.2255 C   0  0  0  0  0  0  0  0  0  0  0  0
   22.4240   18.4818   23.0741 H   0  0  0  0  0  0  0  0  0  0  0  0
   22.2102   20.0424   23.8235 H   0  0  0  0  0  0  0  0  0  0  0  0
   20.5293   18.6985   24.0689 C   0  0  0  0  0  0  0  0  0  0  0  0
   20.2406   17.7147   23.6749 H   0  0  0  0  0  0  0  0  0  0  0  0
   20.9123   18.5093   25.0809 H   0  0  0  0  0  0  0  0  0  0  0  0
   21.2564   21.3022   21.9371 O   0  0  0  0  0  0  0  0  0  0  0  0
   22.0939   21.6091   22.3400 H   0  0  0  0  0  0  0  0  0  0  0  0
  1  2  1  0  0  0  0
  1  3  1  0  0  0  0
  1  4  1  0  0  0  0
  4  5  1  0  0  0  0
  4  6  1  0  0  0  0
  4  7  1  0  0  0  0
  7  8  1  0  0  0  0
  7  9  1  0  0  0  0
  7 10  1  0  0  0  0
 10 11  1  0  0  0  0
 10 12  1  0  0  0  0
 10 13  1  0  0  0  0
 13 14  1  0  0  0  0
 13 15  1  0  0  0  0
 15 16  1  0  0  0  0
 15 17  1  0  0  0  0
  1 18  1  0  0  0  0
 15 18  1  0  0  0  0
 18 19  1  0  0  0  0
 18 20  1  0  0  0  0
 13 21  1  0  0  0  0
 21 22  1  0  0  0  0
M  END
> <VConfSearch Rank>
718

> <Conf_Id>
104

> <Delta U+W>
-1.172

> <U+W>
5.252

> <U>
7.482

> <W>
-2.230

> <W(PB)>
-4.220

> <W(SA)>
1.990

> <Valence>
12.309

> <Coulomb>
-7.084

> <VdW>
2.258

> <VdW6>
-9.770

> <VdW12>
12.028

> <Bond>
0.284

> <Angle>
3.491

> <Pdih>
8.535

> <Idih>
0.000

> <Tether>
0.000

$$$$
VeraChem MOL file


 22 22  0  0  0  0  0  0  0  0999 V2000     
   20.3469   20.7750   21.5663 C   0  0  0  0  0  0  0  0  0  0  0  0
   20.3516   21.5677   22.3266 H   0  0  0  0  0  0  0  0  0  0  0  0
   20.5017   21.2796   20.6028 H   0  0  0  0  0  0  0  0  0  0  0  0
   18.9732   20.0680   21.5143 C   0  0  0  0  0  0  0  0  0  0  0  0
   18.2772   20.6965   20.9418 H   0  0  0  0  0  0  0  0  0  0  0  0
   19.0631   19.1413   20.9325 H   0  0  0  0  0  0  0  0  0  0  0  0
   18.3192   19.7695   22.8872 C   0  0  0  0  0  0  0  0  0  0  0  0
   17.6357   18.9174   22.7689 H   0  0  0  0  0  0  0  0  0  0  0  0
   17.6795   20.6201   23.1595 H   0  0  0  0  0  0  0  0  0  0  0  0
   19.2702   19.4974   24.0842 C   0  0  0  0  0  0  0  0  0  0  0  0
   19.6549   20.4537   24.4615 H   0  0  0  0  0  0  0  0  0  0  0  0
   18.6709   19.0842   24.9059 H   0  0  0  0  0  0  0  0  0  0  0  0
   20.4630   18.5463   23.8342 C   0  0  0  0  0  0  0  0  0  0  0  0
   20.7793   18.1546   24.8117 H   0  0  0  0  0  0  0  0  0  0  0  0
   21.6870   19.2661   23.2242 C   0  0  0  0  0  0  0  0  0  0  0  0
   21.9673   20.1003   23.8803 H   0  0  0  0  0  0  0  0  0  0  0  0
   22.5381   18.5731   23.2473 H   0  0  0  0  0  0  0  0  0  0  0  0
   21.5270   19.7970   21.7780 C   0  0  0  0  0  0  0  0  0  0  0  0
   22.4568   20.3143   21.5049 H   0  0  0  0  0  0  0  0  0  0  0  0
   21.4423   18.9540   21.0790 H   0  0  0  0  0  0  0  0  0  0  0  0
   20.0711   17.4615   23.0074 O   0  0  0  0  0  0  0  0  0  0  0  0
   19.7278   17.8902   22.1982 H   0  0  0  0  0  0  0  0  0  0  0  0
  1  2  1  0  0  0  0
  1  3  1  0  0  0  0
  1  4  1  0  0  0  0
  4  5  1  0  0  0  0
  4  6  1  0  0  0  0
  4  7  1  0  0  0  0
  7  8  1  0  0  0  0
  7  9  1  0  0  0  0
  7 10  1  0  0  0  0
 10 11  1  0  0  0  0
 10 12  1  0  0  0  0
 10 13  1  0  0  0  0
 13 14  1  0  0  0  0
 13 15  1  0  0  0  0
 15 16  1  0  0  0  0
 15 17  1  0  0  0  0
  1 18  1  0  0  0  0
 15 18  1  0  0  0  0
 18 19  1  0  0  0  0
 18 20  1  0  0  0  0
 13 21  1  0  0  0  0
 21 22  1  0  0  0  0
M  END
> <VConfSearch Rank>
719

> <Conf_Id>
99

> <Delta U+W>
-3.852

> <U+W>
2.572

> <U>
3.922

> <W>
-1.350

> <W(PB)>
-3.345

> <W(SA)>
1.995

> <Valence>
12.571

> <Coulomb>
-10.581

> <VdW>
1.932

> <VdW6>
-10.483

> <VdW12>
12.415

> <Bond>
0.268

> <Angle>
3.728

> <Pdih>
8.575

> <Idih>
0.000

> <Tether>
0.000

$$$$
VeraChem MOL file


 22 22  0  0  0  0  0  0  0  0999 V2000     
   19.0209   20.4283   23.6621 C   0  0  0  0  0  0  0  0  0  0  0  0
   18.6071   20.6746   24.6497 H   0  0  0  0  0  0  0  0  0  0  0  0
   18.4717   21.0673   22.9577 H   0  0  0  0  0  0  0  0  0  0  0  0
   18.7149   18.9287   23.3767 C   0  0  0  0  0  0  0  0  0  0  0  0
   18.1685   18.5260   24.2407 H   0  0  0  0  0  0  0  0  0  0  0  0
   18.0170   18.8387   22.5335 H   0  0  0  0  0  0  0  0  0  0  0  0
   19.9459   18.0194   23.1309 C   0  0  0  0  0  0  0  0  0  0  0  0
   19.6108   16.9733   23.1380 H   0  0  0  0  0  0  0  0  0  0  0  0
   20.6364   18.0934   23.9801 H   0  0  0  0  0  0  0  0  0  0  0  0
   20.7180   18.2620   21.8043 C   0  0  0  0  0  0  0  0  0  0  0  0
   21.7364   17.8703   21.9236 H   0  0  0  0  0  0  0  0  0  0  0  0
   20.2604   17.6457   21.0190 H   0  0  0  0  0  0  0  0  0  0  0  0
   20.8104   19.7109   21.2656 C   0  0  0  0  0  0  0  0  0  0  0  0
   21.5683   19.7078   20.4691 H   0  0  0  0  0  0  0  0  0  0  0  0
   21.2348   20.7956   22.2861 C   0  0  0  0  0  0  0  0  0  0  0  0
   22.3142   20.7035   22.4622 H   0  0  0  0  0  0  0  0  0  0  0  0
   21.1020   21.7734   21.8040 H   0  0  0  0  0  0  0  0  0  0  0  0
   20.5188   20.8271   23.6649 C   0  0  0  0  0  0  0  0  0  0  0  0
   21.0669   20.2025   24.3812 H   0  0  0  0  0  0  0  0  0  0  0  0
   20.6052   21.8464   24.0652 H   0  0  0  0  0  0  0  0  0  0  0  0
   19.5764   20.0763   20.6680 O   0  0  0  0  0  0  0  0  0  0  0  0
   18.9410   20.0645   21.4116 H   0  0  0  0  0  0  0  0  0  0  0  0
  1  2  1  0  0  0  0
  1  3  1  0  0  0  0
  1  4  1  0  0  0  0
  4  5  1  0  0  0  0
  4  6  1  0  0  0  0
  4  7  1  0  0  0  0
  7  8  1  0  0  0  0
  7  9  1  0  0  0  0
  7 10  1  0  0  0  0
 10 11  1  0  0  0  0
 10 12  1  0  0  0  0
 10 13  1  0  0  0  0
 13 14  1  0  0  0  0
 13 15  1  0  0  0  0
 15 16  1  0  0  0  0
 15 17  1  0  0  0  0
  1 18  1  0  0  0  0
 15 18  1  0  0  0  0
 18 19  1  0  0  0  0
 18 20  1  0  0  0  0
 13 21  1  0  0  0  0
 21 22  1  0  0  0  0
M  END
> <VConfSearch Rank>
720

> <Conf_Id>
98

> <Delta U+W>
0.930

> <U+W>
7.353

> <U>
8.455

> <W>
-1.102

> <W(PB)>
-3.101

> <W(SA)>
2.000

> <Valence>
15.601

> <Coulomb>
-10.573

> <VdW>
3.427

> <VdW6>
-11.360

> <VdW12>
14.787

> <Bond>
0.471

> <Angle>
5.445

> <Pdih>
9.685

> <Idih>
0.000

> <Tether>
0.000

$$$$
VeraChem MOL file


 22 22  0  0  0  0  0  0  0  0999 V2000     
   19.7238   20.1490   24.2332 C   0  0  0  0  0  0  0  0  0  0  0  0
   18.9393   20.7744   23.7880 H   0  0  0  0  0  0  0  0  0  0  0  0
   19.6748   20.3547   25.3112 H   0  0  0  0  0  0  0  0  0  0  0  0
   21.1116   20.5966   23.7082 C   0  0  0  0  0  0  0  0  0  0  0  0
   21.2441   21.6522   23.9823 H   0  0  0  0  0  0  0  0  0  0  0  0
   21.9006   20.0495   24.2419 H   0  0  0  0  0  0  0  0  0  0  0  0
   21.3428   20.4620   22.1775 C   0  0  0  0  0  0  0  0  0  0  0  0
   21.9702   19.5861   21.9672 H   0  0  0  0  0  0  0  0  0  0  0  0
   21.9381   21.3228   21.8440 H   0  0  0  0  0  0  0  0  0  0  0  0
   20.0505   20.3900   21.3217 C   0  0  0  0  0  0  0  0  0  0  0  0
   19.3987   21.2332   21.5823 H   0  0  0  0  0  0  0  0  0  0  0  0
   20.3227   20.5587   20.2710 H   0  0  0  0  0  0  0  0  0  0  0  0
   19.2389   19.0654   21.4255 C   0  0  0  0  0  0  0  0  0  0  0  0
   18.1782   19.3268   21.5503 H   0  0  0  0  0  0  0  0  0  0  0  0
   19.6410   18.1138   22.5801 C   0  0  0  0  0  0  0  0  0  0  0  0
   19.0870   17.1721   22.4739 H   0  0  0  0  0  0  0  0  0  0  0  0
   20.6970   17.8363   22.4789 H   0  0  0  0  0  0  0  0  0  0  0  0
   19.3844   18.6568   24.0081 C   0  0  0  0  0  0  0  0  0  0  0  0
   18.3262   18.5052   24.2612 H   0  0  0  0  0  0  0  0  0  0  0  0
   19.9551   18.0459   24.7207 H   0  0  0  0  0  0  0  0  0  0  0  0
   19.3925   18.3461   20.2072 O   0  0  0  0  0  0  0  0  0  0  0  0
   18.8279   17.5483   20.2769 H   0  0  0  0  0  0  0  0  0  0  0  0
  1  2  1  0  0  0  0
  1  3  1  0  0  0  0
  1  4  1  0  0  0  0
  4  5  1  0  0  0  0
  4  6  1  0  0  0  0
  4  7  1  0  0  0  0
  7  8  1  0  0  0  0
  7  9  1  0  0  0  0
  7 10  1  0  0  0  0
 10 11  1  0  0  0  0
 10 12  1  0  0  0  0
 10 13  1  0  0  0  0
 13 14  1  0  0  0  0
 13 15  1  0  0  0  0
 15 16  1  0  0  0  0
 15 17  1  0  0  0  0
  1 18  1  0  0  0  0
 15 18  1  0  0  0  0
 18 19  1  0  0  0  0
 18 20  1  0  0  0  0
 13 21  1  0  0  0  0
 21 22  1  0  0  0  0
M  END
> <VConfSearch Rank>
721

> <Conf_Id>
141

> <Delta U+W>
0.000

> <U+W>
6.423

> <U>
8.781

> <W>
-2.358

> <W(PB)>
-4.373

> <W(SA)>
2.015

> <Valence>
13.328

> <Coulomb>
-8.387

> <VdW>
3.840

> <VdW6>
-9.744

> <VdW12>
13.584

> <Bond>
0.436

> <Angle>
3.478

> <Pdih>
9.415

> <Idih>
0.000

> <Tether>
0.000

$$$$
VeraChem MOL file


 22 22  0  0  0  0  0  0  0  0999 V2000     
   20.5200   17.9495   22.5447 C   0  0  0  0  0  0  0  0  0  0  0  0
   20.5190   18.0489   21.4507 H   0  0  0  0  0  0  0  0  0  0  0  0
   20.8951   16.9391   22.7575 H   0  0  0  0  0  0  0  0  0  0  0  0
   19.0825   18.0457   23.1105 C   0  0  0  0  0  0  0  0  0  0  0  0
   18.5229   17.1537   22.7975 H   0  0  0  0  0  0  0  0  0  0  0  0
   19.1196   18.0048   24.2077 H   0  0  0  0  0  0  0  0  0  0  0  0
   18.2836   19.2946   22.6721 C   0  0  0  0  0  0  0  0  0  0  0  0
   17.3147   19.2804   23.1897 H   0  0  0  0  0  0  0  0  0  0  0  0
   18.0519   19.2220   21.6006 H   0  0  0  0  0  0  0  0  0  0  0  0
   18.9772   20.6488   22.9591 C   0  0  0  0  0  0  0  0  0  0  0  0
   18.2291   21.4406   22.8220 H   0  0  0  0  0  0  0  0  0  0  0  0
   19.2945   20.7067   24.0083 H   0  0  0  0  0  0  0  0  0  0  0  0
   20.1717   20.9186   22.0167 C   0  0  0  0  0  0  0  0  0  0  0  0
   19.9501   20.4630   21.0409 H   0  0  0  0  0  0  0  0  0  0  0  0
   21.5232   20.3597   22.5171 C   0  0  0  0  0  0  0  0  0  0  0  0
   22.2038   20.3194   21.6569 H   0  0  0  0  0  0  0  0  0  0  0  0
   21.9721   21.0718   23.2226 H   0  0  0  0  0  0  0  0  0  0  0  0
   21.4905   18.9654   23.1914 C   0  0  0  0  0  0  0  0  0  0  0  0
   22.5082   18.5523   23.1663 H   0  0  0  0  0  0  0  0  0  0  0  0
   21.2452   19.0778   24.2562 H   0  0  0  0  0  0  0  0  0  0  0  0
   20.3121   22.3237   21.8454 O   0  0  0  0  0  0  0  0  0  0  0  0
   19.4720   22.6460   21.4569 H   0  0  0  0  0  0  0  0  0  0  0  0
  1  2  1  0  0  0  0
  1  3  1  0  0  0  0
  1  4  1  0  0  0  0
  4  5  1  0  0  0  0
  4  6  1  0  0  0  0
  4  7  1  0  0  0  0
  7  8  1  0  0  0  0
  7  9  1  0  0  0  0
  7 10  1  0  0  0  0
 10 11  1  0  0  0  0
 10 12  1  0  0  0  0
 10 13  1  0  0  0  0
 13 14  1  0  0  0  0
 13 15  1  0  0  0  0
 15 16  1  0  0  0  0
 15 17  1  0  0  0  0
  1 18  1  0  0  0  0
 15 18  1  0  0  0  0
 18 19  1  0  0  0  0
 18 20  1  0  0  0  0
 13 21  1  0  0  0  0
 21 22  1  0  0  0  0
M  END
> <VConfSearch Rank>
722

> <Conf_Id>
144

> <Delta U+W>
-3.291

> <U+W>
3.132

> <U>
5.411

> <W>
-2.279

> <W(PB)>
-4.300

> <W(SA)>
2.021

> <Valence>
11.909

> <Coulomb>
-8.733

> <VdW>
2.236

> <VdW6>
-8.936

> <VdW12>
11.172

> <Bond>
0.223

> <Angle>
2.457

> <Pdih>
9.228

> <Idih>
0.000

> <Tether>
0.000

$$$$
VeraChem MOL file


 22 22  0  0  0  0  0  0  0  0999 V2000     
   20.5613   21.0206   23.3338 C   0  0  0  0  0  0  0  0  0  0  0  0
   21.1272   21.7621   23.9141 H   0  0  0  0  0  0  0  0  0  0  0  0
   19.8695   21.5934   22.7013 H   0  0  0  0  0  0  0  0  0  0  0  0
   19.7858   20.1254   24.3285 C   0  0  0  0  0  0  0  0  0  0  0  0
   20.4530   19.3412   24.7113 H   0  0  0  0  0  0  0  0  0  0  0  0
   19.5074   20.7265   25.2049 H   0  0  0  0  0  0  0  0  0  0  0  0
   18.4968   19.4807   23.7639 C   0  0  0  0  0  0  0  0  0  0  0  0
   17.6726   20.2030   23.8409 H   0  0  0  0  0  0  0  0  0  0  0  0
   18.2197   18.6414   24.4165 H   0  0  0  0  0  0  0  0  0  0  0  0
   18.5637   18.9801   22.3000 C   0  0  0  0  0  0  0  0  0  0  0  0
   17.7374   18.2724   22.1489 H   0  0  0  0  0  0  0  0  0  0  0  0
   18.3637   19.8201   21.6223 H   0  0  0  0  0  0  0  0  0  0  0  0
   19.8971   18.3085   21.9015 C   0  0  0  0  0  0  0  0  0  0  0  0
   20.3075   17.7643   22.7639 H   0  0  0  0  0  0  0  0  0  0  0  0
   20.9410   19.3245   21.3848 C   0  0  0  0  0  0  0  0  0  0  0  0
   21.7516   18.7742   20.8885 H   0  0  0  0  0  0  0  0  0  0  0  0
   20.4856   19.9564   20.6112 H   0  0  0  0  0  0  0  0  0  0  0  0
   21.5721   20.2278   22.4709 C   0  0  0  0  0  0  0  0  0  0  0  0
   22.2110   19.6186   23.1248 H   0  0  0  0  0  0  0  0  0  0  0  0
   22.2448   20.9410   21.9755 H   0  0  0  0  0  0  0  0  0  0  0  0
   19.6356   17.3818   20.8560 O   0  0  0  0  0  0  0  0  0  0  0  0
   19.2715   17.9017   20.1102 H   0  0  0  0  0  0  0  0  0  0  0  0
  1  2  1  0  0  0  0
  1  3  1  0  0  0  0
  1  4  1  0  0  0  0
  4  5  1  0  0  0  0
  4  6  1  0  0  0  0
  4  7  1  0  0  0  0
  7  8  1  0  0  0  0
  7  9  1  0  0  0  0
  7 10  1  0  0  0  0
 10 11  1  0  0  0  0
 10 12  1  0  0  0  0
 10 13  1  0  0  0  0
 13 14  1  0  0  0  0
 13 15  1  0  0  0  0
 15 16  1  0  0  0  0
 15 17  1  0  0  0  0
  1 18  1  0  0  0  0
 15 18  1  0  0  0  0
 18 19  1  0  0  0  0
 18 20  1  0  0  0  0
 13 21  1  0  0  0  0
 21 22  1  0  0  0  0
M  END
> <VConfSearch Rank>
723

> <Conf_Id>
76

> <Delta U+W>
-3.175

> <U+W>
3.248

> <U>
5.336

> <W>
-2.088

> <W(PB)>
-4.098

> <W(SA)>
2.010

> <Valence>
12.390

> <Coulomb>
-9.270

> <VdW>
2.216

> <VdW6>
-8.967

> <VdW12>
11.183

> <Bond>
0.218

> <Angle>
2.426

> <Pdih>
9.745

> <Idih>
0.000

> <Tether>
0.000

$$$$
VeraChem MOL file


 22 22  0  0  0  0  0  0  0  0999 V2000     
   21.3675   18.2753   22.2561 C   0  0  0  0  0  0  0  0  0  0  0  0
   21.3173   17.1926   22.4352 H   0  0  0  0  0  0  0  0  0  0  0  0
   22.2988   18.4424   21.6979 H   0  0  0  0  0  0  0  0  0  0  0  0
   21.4691   18.9882   23.6258 C   0  0  0  0  0  0  0  0  0  0  0  0
   20.8578   18.4521   24.3644 H   0  0  0  0  0  0  0  0  0  0  0  0
   22.5049   18.8966   23.9801 H   0  0  0  0  0  0  0  0  0  0  0  0
   21.0718   20.4827   23.6167 C   0  0  0  0  0  0  0  0  0  0  0  0
   21.4007   20.9718   22.6896 H   0  0  0  0  0  0  0  0  0  0  0  0
   21.6099   20.9836   24.4327 H   0  0  0  0  0  0  0  0  0  0  0  0
   19.5550   20.7018   23.8473 C   0  0  0  0  0  0  0  0  0  0  0  0
   19.2413   20.1438   24.7388 H   0  0  0  0  0  0  0  0  0  0  0  0
   19.3865   21.7598   24.0875 H   0  0  0  0  0  0  0  0  0  0  0  0
   18.6241   20.3262   22.6719 C   0  0  0  0  0  0  0  0  0  0  0  0
   17.5951   20.3660   23.0573 H   0  0  0  0  0  0  0  0  0  0  0  0
   18.8381   18.9065   22.0894 C   0  0  0  0  0  0  0  0  0  0  0  0
   18.7232   18.1574   22.8835 H   0  0  0  0  0  0  0  0  0  0  0  0
   18.0228   18.7134   21.3803 H   0  0  0  0  0  0  0  0  0  0  0  0
   20.1847   18.6935   21.3503 C   0  0  0  0  0  0  0  0  0  0  0  0
   20.0507   17.9129   20.5893 H   0  0  0  0  0  0  0  0  0  0  0  0
   20.4558   19.5995   20.7926 H   0  0  0  0  0  0  0  0  0  0  0  0
   18.7502   21.3020   21.6424 O   0  0  0  0  0  0  0  0  0  0  0  0
   18.1870   20.9995   20.9010 H   0  0  0  0  0  0  0  0  0  0  0  0
  1  2  1  0  0  0  0
  1  3  1  0  0  0  0
  1  4  1  0  0  0  0
  4  5  1  0  0  0  0
  4  6  1  0  0  0  0
  4  7  1  0  0  0  0
  7  8  1  0  0  0  0
  7  9  1  0  0  0  0
  7 10  1  0  0  0  0
 10 11  1  0  0  0  0
 10 12  1  0  0  0  0
 10 13  1  0  0  0  0
 13 14  1  0  0  0  0
 13 15  1  0  0  0  0
 15 16  1  0  0  0  0
 15 17  1  0  0  0  0
  1 18  1  0  0  0  0
 15 18  1  0  0  0  0
 18 19  1  0  0  0  0
 18 20  1  0  0  0  0
 13 21  1  0  0  0  0
 21 22  1  0  0  0  0
M  END
> <VConfSearch Rank>
724

> <Conf_Id>
95

> <Delta U+W>
-2.289

> <U+W>
4.134

> <U>
6.373

> <W>
-2.240

> <W(PB)>
-4.254

> <W(SA)>
2.015

> <Valence>
12.093

> <Coulomb>
-8.058

> <VdW>
2.339

> <VdW6>
-9.683

> <VdW12>
12.022

> <Bond>
0.268

> <Angle>
3.005

> <Pdih>
8.820

> <Idih>
0.000

> <Tether>
0.000

$$$$
VeraChem MOL file


 22 22  0  0  0  0  0  0  0  0999 V2000     
   20.7925   18.2605   23.8125 C   0  0  0  0  0  0  0  0  0  0  0  0
   21.8498   18.0943   24.0600 H   0  0  0  0  0  0  0  0  0  0  0  0
   20.2328   17.4950   24.3672 H   0  0  0  0  0  0  0  0  0  0  0  0
   20.6062   18.0166   22.2959 C   0  0  0  0  0  0  0  0  0  0  0  0
   21.4952   18.3706   21.7565 H   0  0  0  0  0  0  0  0  0  0  0  0
   20.5743   16.9314   22.1282 H   0  0  0  0  0  0  0  0  0  0  0  0
   19.3409   18.6574   21.6796 C   0  0  0  0  0  0  0  0  0  0  0  0
   18.4928   18.6011   22.3756 H   0  0  0  0  0  0  0  0  0  0  0  0
   19.0535   18.0652   20.8003 H   0  0  0  0  0  0  0  0  0  0  0  0
   19.5774   20.1152   21.2105 C   0  0  0  0  0  0  0  0  0  0  0  0
   20.4805   20.1497   20.5874 H   0  0  0  0  0  0  0  0  0  0  0  0
   18.7542   20.4080   20.5460 H   0  0  0  0  0  0  0  0  0  0  0  0
   19.7051   21.1783   22.3255 C   0  0  0  0  0  0  0  0  0  0  0  0
   20.0401   22.1072   21.8419 H   0  0  0  0  0  0  0  0  0  0  0  0
   20.7343   20.8473   23.4352 C   0  0  0  0  0  0  0  0  0  0  0  0
   21.7258   20.6902   22.9918 H   0  0  0  0  0  0  0  0  0  0  0  0
   20.8268   21.7393   24.0682 H   0  0  0  0  0  0  0  0  0  0  0  0
   20.3607   19.6478   24.3448 C   0  0  0  0  0  0  0  0  0  0  0  0
   20.8280   19.7921   25.3282 H   0  0  0  0  0  0  0  0  0  0  0  0
   19.2794   19.6464   24.5352 H   0  0  0  0  0  0  0  0  0  0  0  0
   18.4238   21.4150   22.9012 O   0  0  0  0  0  0  0  0  0  0  0  0
   17.8123   21.6013   22.1599 H   0  0  0  0  0  0  0  0  0  0  0  0
  1  2  1  0  0  0  0
  1  3  1  0  0  0  0
  1  4  1  0  0  0  0
  4  5  1  0  0  0  0
  4  6  1  0  0  0  0
  4  7  1  0  0  0  0
  7  8  1  0  0  0  0
  7  9  1  0  0  0  0
  7 10  1  0  0  0  0
 10 11  1  0  0  0  0
 10 12  1  0  0  0  0
 10 13  1  0  0  0  0
 13 14  1  0  0  0  0
 13 15  1  0  0  0  0
 15 16  1  0  0  0  0
 15 17  1  0  0  0  0
  1 18  1  0  0  0  0
 15 18  1  0  0  0  0
 18 19  1  0  0  0  0
 18 20  1  0  0  0  0
 13 21  1  0  0  0  0
 21 22  1  0  0  0  0
M  END
> <VConfSearch Rank>
725

> <Conf_Id>
41

> <Delta U+W>
-2.114

> <U+W>
4.310

> <U>
6.598

> <W>
-2.289

> <W(PB)>
-4.294

> <W(SA)>
2.005

> <Valence>
12.082

> <Coulomb>
-7.801

> <VdW>
2.317

> <VdW6>
-9.658

> <VdW12>
11.975

> <Bond>
0.267

> <Angle>
3.051

> <Pdih>
8.764

> <Idih>
0.000

> <Tether>
0.000

$$$$
VeraChem MOL file


 22 22  0  0  0  0  0  0  0  0999 V2000     
   18.8418   19.1021   23.7346 C   0  0  0  0  0  0  0  0  0  0  0  0
   17.9044   19.0237   24.3018 H   0  0  0  0  0  0  0  0  0  0  0  0
   19.3183   18.1136   23.7891 H   0  0  0  0  0  0  0  0  0  0  0  0
   19.7219   20.1716   24.4193 C   0  0  0  0  0  0  0  0  0  0  0  0
   19.2588   21.1604   24.2995 H   0  0  0  0  0  0  0  0  0  0  0  0
   19.7363   19.9748   25.4998 H   0  0  0  0  0  0  0  0  0  0  0  0
   21.1817   20.2222   23.9176 C   0  0  0  0  0  0  0  0  0  0  0  0
   21.7067   19.3090   24.2281 H   0  0  0  0  0  0  0  0  0  0  0  0
   21.6900   21.0449   24.4381 H   0  0  0  0  0  0  0  0  0  0  0  0
   21.3468   20.4358   22.3884 C   0  0  0  0  0  0  0  0  0  0  0  0
   20.7594   21.3040   22.0637 H   0  0  0  0  0  0  0  0  0  0  0  0
   22.3954   20.7009   22.2015 H   0  0  0  0  0  0  0  0  0  0  0  0
   21.0184   19.2135   21.4928 C   0  0  0  0  0  0  0  0  0  0  0  0
   21.4776   19.4083   20.5127 H   0  0  0  0  0  0  0  0  0  0  0  0
   19.5130   18.9590   21.2205 C   0  0  0  0  0  0  0  0  0  0  0  0
   19.2577   19.4303   20.2625 H   0  0  0  0  0  0  0  0  0  0  0  0
   19.3545   17.8839   21.0639 H   0  0  0  0  0  0  0  0  0  0  0  0
   18.4940   19.4617   22.2731 C   0  0  0  0  0  0  0  0  0  0  0  0
   18.3650   20.5483   22.1782 H   0  0  0  0  0  0  0  0  0  0  0  0
   17.5157   19.0266   22.0277 H   0  0  0  0  0  0  0  0  0  0  0  0
   21.6164   18.0331   22.0218 O   0  0  0  0  0  0  0  0  0  0  0  0
   21.4101   17.3077   21.3980 H   0  0  0  0  0  0  0  0  0  0  0  0
  1  2  1  0  0  0  0
  1  3  1  0  0  0  0
  1  4  1  0  0  0  0
  4  5  1  0  0  0  0
  4  6  1  0  0  0  0
  4  7  1  0  0  0  0
  7  8  1  0  0  0  0
  7  9  1  0  0  0  0
  7 10  1  0  0  0  0
 10 11  1  0  0  0  0
 10 12  1  0  0  0  0
 10 13  1  0  0  0  0
 13 14  1  0  0  0  0
 13 15  1  0  0  0  0
 15 16  1  0  0  0  0
 15 17  1  0  0  0  0
  1 18  1  0  0  0  0
 15 18  1  0  0  0  0
 18 19  1  0  0  0  0
 18 20  1  0  0  0  0
 13 21  1  0  0  0  0
 21 22  1  0  0  0  0
M  END
> <VConfSearch Rank>
726

> <Conf_Id>
104

> <Delta U+W>
-1.172

> <U+W>
5.252

> <U>
7.482

> <W>
-2.230

> <W(PB)>
-4.220

> <W(SA)>
1.990

> <Valence>
12.309

> <Coulomb>
-7.084

> <VdW>
2.258

> <VdW6>
-9.770

> <VdW12>
12.028

> <Bond>
0.284

> <Angle>
3.491

> <Pdih>
8.535

> <Idih>
0.000

> <Tether>
0.000

$$$$
VeraChem MOL file


 22 22  0  0  0  0  0  0  0  0999 V2000     
   19.7743   20.9960   23.4680 C   0  0  0  0  0  0  0  0  0  0  0  0
   20.8309   21.2958   23.4529 H   0  0  0  0  0  0  0  0  0  0  0  0
   19.2425   21.7904   24.0094 H   0  0  0  0  0  0  0  0  0  0  0  0
   19.5852   19.6791   24.2551 C   0  0  0  0  0  0  0  0  0  0  0  0
   19.5917   19.9092   25.3295 H   0  0  0  0  0  0  0  0  0  0  0  0
   18.5827   19.2778   24.0568 H   0  0  0  0  0  0  0  0  0  0  0  0
   20.6529   18.5853   24.0003 C   0  0  0  0  0  0  0  0  0  0  0  0
   20.2065   17.6056   24.2201 H   0  0  0  0  0  0  0  0  0  0  0  0
   21.4596   18.7092   24.7357 H   0  0  0  0  0  0  0  0  0  0  0  0
   21.3063   18.5429   22.5922 C   0  0  0  0  0  0  0  0  0  0  0  0
   22.0742   19.3247   22.5294 H   0  0  0  0  0  0  0  0  0  0  0  0
   21.8525   17.5952   22.5005 H   0  0  0  0  0  0  0  0  0  0  0  0
   20.3636   18.6739   21.3740 C   0  0  0  0  0  0  0  0  0  0  0  0
   20.8852   18.2401   20.5088 H   0  0  0  0  0  0  0  0  0  0  0  0
   20.0480   20.1434   21.0145 C   0  0  0  0  0  0  0  0  0  0  0  0
   20.9938   20.6764   20.8514 H   0  0  0  0  0  0  0  0  0  0  0  0
   19.5313   20.1554   20.0460 H   0  0  0  0  0  0  0  0  0  0  0  0
   19.1944   20.9368   22.0347 C   0  0  0  0  0  0  0  0  0  0  0  0
   19.0932   21.9648   21.6610 H   0  0  0  0  0  0  0  0  0  0  0  0
   18.1741   20.5311   22.0620 H   0  0  0  0  0  0  0  0  0  0  0  0
   19.1601   17.9550   21.5952 O   0  0  0  0  0  0  0  0  0  0  0  0
   18.8007   18.3394   22.4194 H   0  0  0  0  0  0  0  0  0  0  0  0
  1  2  1  0  0  0  0
  1  3  1  0  0  0  0
  1  4  1  0  0  0  0
  4  5  1  0  0  0  0
  4  6  1  0  0  0  0
  4  7  1  0  0  0  0
  7  8  1  0  0  0  0
  7  9  1  0  0  0  0
  7 10  1  0  0  0  0
 10 11  1  0  0  0  0
 10 12  1  0  0  0  0
 10 13  1  0  0  0  0
 13 14  1  0  0  0  0
 13 15  1  0  0  0  0
 15 16  1  0  0  0  0
 15 17  1  0  0  0  0
  1 18  1  0  0  0  0
 15 18  1  0  0  0  0
 18 19  1  0  0  0  0
 18 20  1  0  0  0  0
 13 21  1  0  0  0  0
 21 22  1  0  0  0  0
M  END
> <VConfSearch Rank>
727

> <Conf_Id>
99

> <Delta U+W>
-3.852

> <U+W>
2.572

> <U>
3.922

> <W>
-1.350

> <W(PB)>
-3.345

> <W(SA)>
1.995

> <Valence>
12.571

> <Coulomb>
-10.581

> <VdW>
1.932

> <VdW6>
-10.483

> <VdW12>
12.415

> <Bond>
0.268

> <Angle>
3.728

> <Pdih>
8.575

> <Idih>
0.000

> <Tether>
0.000

$$$$
VeraChem MOL file


 22 22  0  0  0  0  0  0  0  0999 V2000     
   20.3466   20.6393   21.4081 C   0  0  0  0  0  0  0  0  0  0  0  0
   20.1471   20.9986   20.3891 H   0  0  0  0  0  0  0  0  0  0  0  0
   21.1045   21.3267   21.8073 H   0  0  0  0  0  0  0  0  0  0  0  0
   20.9308   19.2002   21.3011 C   0  0  0  0  0  0  0  0  0  0  0  0
   20.9843   18.9366   20.2358 H   0  0  0  0  0  0  0  0  0  0  0  0
   21.9726   19.1879   21.6484 H   0  0  0  0  0  0  0  0  0  0  0  0
   20.1298   18.0868   22.0234 C   0  0  0  0  0  0  0  0  0  0  0  0
   20.5314   17.1132   21.7113 H   0  0  0  0  0  0  0  0  0  0  0  0
   19.0929   18.0849   21.6652 H   0  0  0  0  0  0  0  0  0  0  0  0
   20.1482   18.1327   23.5766 C   0  0  0  0  0  0  0  0  0  0  0  0
   19.2735   17.5822   23.9463 H   0  0  0  0  0  0  0  0  0  0  0  0
   21.0191   17.5648   23.9300 H   0  0  0  0  0  0  0  0  0  0  0  0
   20.1832   19.5182   24.2676 C   0  0  0  0  0  0  0  0  0  0  0  0
   19.9637   19.3500   25.3317 H   0  0  0  0  0  0  0  0  0  0  0  0
   19.1616   20.5643   23.7575 C   0  0  0  0  0  0  0  0  0  0  0  0
   18.1704   20.3012   24.1488 H   0  0  0  0  0  0  0  0  0  0  0  0
   19.4119   21.5261   24.2246 H   0  0  0  0  0  0  0  0  0  0  0  0
   19.0362   20.7813   22.2239 C   0  0  0  0  0  0  0  0  0  0  0  0
   18.2714   20.1089   21.8160 H   0  0  0  0  0  0  0  0  0  0  0  0
   18.6332   21.7899   22.0592 H   0  0  0  0  0  0  0  0  0  0  0  0
   21.4940   20.0558   24.1903 O   0  0  0  0  0  0  0  0  0  0  0  0
   21.6398   20.1864   23.2318 H   0  0  0  0  0  0  0  0  0  0  0  0
  1  2  1  0  0  0  0
  1  3  1  0  0  0  0
  1  4  1  0  0  0  0
  4  5  1  0  0  0  0
  4  6  1  0  0  0  0
  4  7  1  0  0  0  0
  7  8  1  0  0  0  0
  7  9  1  0  0  0  0
  7 10  1  0  0  0  0
 10 11  1  0  0  0  0
 10 12  1  0  0  0  0
 10 13  1  0  0  0  0
 13 14  1  0  0  0  0
 13 15  1  0  0  0  0
 15 16  1  0  0  0  0
 15 17  1  0  0  0  0
  1 18  1  0  0  0  0
 15 18  1  0  0  0  0
 18 19  1  0  0  0  0
 18 20  1  0  0  0  0
 13 21  1  0  0  0  0
 21 22  1  0  0  0  0
M  END
> <VConfSearch Rank>
728

> <Conf_Id>
98

> <Delta U+W>
0.930

> <U+W>
7.353

> <U>
8.455

> <W>
-1.102

> <W(PB)>
-3.101

> <W(SA)>
2.000

> <Valence>
15.601

> <Coulomb>
-10.573

> <VdW>
3.427

> <VdW6>
-11.360

> <VdW12>
14.787

> <Bond>
0.471

> <Angle>
5.445

> <Pdih>
9.685

> <Idih>
0.000

> <Tether>
0.000

$$$$
VeraChem MOL file


 22 22  0  0  0  0  0  0  0  0999 V2000     
   21.3118   19.2937   21.5520 C   0  0  0  0  0  0  0  0  0  0  0  0
   20.9366   20.1663   21.0019 H   0  0  0  0  0  0  0  0  0  0  0  0
   22.2239   18.9916   21.0196 H   0  0  0  0  0  0  0  0  0  0  0  0
   20.2836   18.1374   21.4644 C   0  0  0  0  0  0  0  0  0  0  0  0
   20.1398   17.9026   20.4009 H   0  0  0  0  0  0  0  0  0  0  0  0
   20.7107   17.2307   21.9141 H   0  0  0  0  0  0  0  0  0  0  0  0
   18.8885   18.4101   22.0921 C   0  0  0  0  0  0  0  0  0  0  0  0
   18.8057   17.9009   23.0611 H   0  0  0  0  0  0  0  0  0  0  0  0
   18.1284   17.9348   21.4572 H   0  0  0  0  0  0  0  0  0  0  0  0
   18.5266   19.9092   22.2631 C   0  0  0  0  0  0  0  0  0  0  0  0
   18.6725   20.4261   21.3065 H   0  0  0  0  0  0  0  0  0  0  0  0
   17.4489   19.9834   22.4618 H   0  0  0  0  0  0  0  0  0  0  0  0
   19.2985   20.6722   23.3793 C   0  0  0  0  0  0  0  0  0  0  0  0
   19.6363   21.6319   22.9623 H   0  0  0  0  0  0  0  0  0  0  0  0
   20.5303   19.9421   23.9708 C   0  0  0  0  0  0  0  0  0  0  0  0
   20.9109   20.5203   24.8228 H   0  0  0  0  0  0  0  0  0  0  0  0
   20.2202   18.9796   24.3952 H   0  0  0  0  0  0  0  0  0  0  0  0
   21.7053   19.7179   22.9866 C   0  0  0  0  0  0  0  0  0  0  0  0
   22.2945   20.6427   22.9199 H   0  0  0  0  0  0  0  0  0  0  0  0
   22.3782   18.9621   23.4140 H   0  0  0  0  0  0  0  0  0  0  0  0
   18.4002   20.9306   24.4524 O   0  0  0  0  0  0  0  0  0  0  0  0
   18.8939   21.4597   25.1131 H   0  0  0  0  0  0  0  0  0  0  0  0
  1  2  1  0  0  0  0
  1  3  1  0  0  0  0
  1  4  1  0  0  0  0
  4  5  1  0  0  0  0
  4  6  1  0  0  0  0
  4  7  1  0  0  0  0
  7  8  1  0  0  0  0
  7  9  1  0  0  0  0
  7 10  1  0  0  0  0
 10 11  1  0  0  0  0
 10 12  1  0  0  0  0
 10 13  1  0  0  0  0
 13 14  1  0  0  0  0
 13 15  1  0  0  0  0
 15 16  1  0  0  0  0
 15 17  1  0  0  0  0
  1 18  1  0  0  0  0
 15 18  1  0  0  0  0
 18 19  1  0  0  0  0
 18 20  1  0  0  0  0
 13 21  1  0  0  0  0
 21 22  1  0  0  0  0
M  END
> <VConfSearch Rank>
729

> <Conf_Id>
141

> <Delta U+W>
0.000

> <U+W>
6.423

> <U>
8.781

> <W>
-2.358

> <W(PB)>
-4.373

> <W(SA)>
2.015

> <Valence>
13.328

> <Coulomb>
-8.387

> <VdW>
3.840

> <VdW6>
-9.744

> <VdW12>
13.584

> <Bond>
0.436

> <Angle>
3.478

> <Pdih>
9.415

> <Idih>
0.000

> <Tether>
0.000

$$$$
VeraChem MOL file


 22 22  0  0  0  0  0  0  0  0999 V2000     
   18.3884   18.8977   22.6030 C   0  0  0  0  0  0  0  0  0  0  0  0
   17.9665   19.8801   22.8548 H   0  0  0  0  0  0  0  0  0  0  0  0
   17.5305   18.2284   22.4519 H   0  0  0  0  0  0  0  0  0  0  0  0
   19.2215   18.3349   23.7798 C   0  0  0  0  0  0  0  0  0  0  0  0
   18.5395   18.0893   24.6053 H   0  0  0  0  0  0  0  0  0  0  0  0
   19.6804   17.3833   23.4788 H   0  0  0  0  0  0  0  0  0  0  0  0
   20.3164   19.2810   24.3243 C   0  0  0  0  0  0  0  0  0  0  0  0
   20.8759   18.7448   25.1030 H   0  0  0  0  0  0  0  0  0  0  0  0
   19.8433   20.1343   24.8291 H   0  0  0  0  0  0  0  0  0  0  0  0
   21.3186   19.7999   23.2644 C   0  0  0  0  0  0  0  0  0  0  0  0
   22.1607   20.2577   23.7999 H   0  0  0  0  0  0  0  0  0  0  0  0
   21.7401   18.9656   22.6888 H   0  0  0  0  0  0  0  0  0  0  0  0
   20.6954   20.8502   22.3179 C   0  0  0  0  0  0  0  0  0  0  0  0
   19.9493   21.4251   22.8852 H   0  0  0  0  0  0  0  0  0  0  0  0
   20.0040   20.2584   21.0684 C   0  0  0  0  0  0  0  0  0  0  0  0
   19.3411   21.0317   20.6592 H   0  0  0  0  0  0  0  0  0  0  0  0
   20.7574   20.0669   20.2927 H   0  0  0  0  0  0  0  0  0  0  0  0
   19.1842   18.9607   21.2783 C   0  0  0  0  0  0  0  0  0  0  0  0
   18.4849   18.8612   20.4369 H   0  0  0  0  0  0  0  0  0  0  0  0
   19.8508   18.0902   21.2110 H   0  0  0  0  0  0  0  0  0  0  0  0
   21.7184   21.7351   21.8779 O   0  0  0  0  0  0  0  0  0  0  0  0
   22.0920   22.1560   22.6803 H   0  0  0  0  0  0  0  0  0  0  0  0
  1  2  1  0  0  0  0
  1  3  1  0  0  0  0
  1  4  1  0  0  0  0
  4  5  1  0  0  0  0
  4  6  1  0  0  0  0
  4  7  1  0  0  0  0
  7  8  1  0  0  0  0
  7  9  1  0  0  0  0
  7 10  1  0  0  0  0
 10 11  1  0  0  0  0
 10 12  1  0  0  0  0
 10 13  1  0  0  0  0
 13 14  1  0  0  0  0
 13 15  1  0  0  0  0
 15 16  1  0  0  0  0
 15 17  1  0  0  0  0
  1 18  1  0  0  0  0
 15 18  1  0  0  0  0
 18 19  1  0  0  0  0
 18 20  1  0  0  0  0
 13 21  1  0  0  0  0
 21 22  1  0  0  0  0
M  END
> <VConfSearch Rank>
730

> <Conf_Id>
144

> <Delta U+W>
-3.291

> <U+W>
3.132

> <U>
5.411

> <W>
-2.279

> <W(PB)>
-4.300

> <W(SA)>
2.021

> <Valence>
11.909

> <Coulomb>
-8.733

> <VdW>
2.236

> <VdW6>
-8.936

> <VdW12>
11.172

> <Bond>
0.223

> <Angle>
2.457

> <Pdih>
9.228

> <Idih>
0.000

> <Tether>
0.000

$$$$
VeraChem MOL file


 22 22  0  0  0  0  0  0  0  0999 V2000     
   19.7335   21.2178   22.2189 C   0  0  0  0  0  0  0  0  0  0  0  0
   19.8834   22.2437   21.8556 H   0  0  0  0  0  0  0  0  0  0  0  0
   18.6952   21.1701   22.5745 H   0  0  0  0  0  0  0  0  0  0  0  0
   20.7254   20.9717   23.3797 C   0  0  0  0  0  0  0  0  0  0  0  0
   21.7079   20.7006   22.9697 H   0  0  0  0  0  0  0  0  0  0  0  0
   20.8834   21.9160   23.9184 H   0  0  0  0  0  0  0  0  0  0  0  0
   20.2798   19.9048   24.4088 C   0  0  0  0  0  0  0  0  0  0  0  0
   19.6086   20.3733   25.1414 H   0  0  0  0  0  0  0  0  0  0  0  0
   21.1648   19.5860   24.9764 H   0  0  0  0  0  0  0  0  0  0  0  0
   19.5703   18.6528   23.8365 C   0  0  0  0  0  0  0  0  0  0  0  0
   19.6156   17.8633   24.5988 H   0  0  0  0  0  0  0  0  0  0  0  0
   18.5038   18.8738   23.6999 H   0  0  0  0  0  0  0  0  0  0  0  0
   20.1562   18.1218   22.5089 C   0  0  0  0  0  0  0  0  0  0  0  0
   21.2440   18.2796   22.4973 H   0  0  0  0  0  0  0  0  0  0  0  0
   19.5214   18.7940   21.2703 C   0  0  0  0  0  0  0  0  0  0  0  0
   19.7844   18.2087   20.3790 H   0  0  0  0  0  0  0  0  0  0  0  0
   18.4274   18.7501   21.3500 H   0  0  0  0  0  0  0  0  0  0  0  0
   19.9535   20.2591   21.0242 C   0  0  0  0  0  0  0  0  0  0  0  0
   21.0113   20.2817   20.7283 H   0  0  0  0  0  0  0  0  0  0  0  0
   19.3930   20.6416   20.1603 H   0  0  0  0  0  0  0  0  0  0  0  0
   19.8937   16.7271   22.4309 O   0  0  0  0  0  0  0  0  0  0  0  0
   18.9195   16.6277   22.4457 H   0  0  0  0  0  0  0  0  0  0  0  0
  1  2  1  0  0  0  0
  1  3  1  0  0  0  0
  1  4  1  0  0  0  0
  4  5  1  0  0  0  0
  4  6  1  0  0  0  0
  4  7  1  0  0  0  0
  7  8  1  0  0  0  0
  7  9  1  0  0  0  0
  7 10  1  0  0  0  0
 10 11  1  0  0  0  0
 10 12  1  0  0  0  0
 10 13  1  0  0  0  0
 13 14  1  0  0  0  0
 13 15  1  0  0  0  0
 15 16  1  0  0  0  0
 15 17  1  0  0  0  0
  1 18  1  0  0  0  0
 15 18  1  0  0  0  0
 18 19  1  0  0  0  0
 18 20  1  0  0  0  0
 13 21  1  0  0  0  0
 21 22  1  0  0  0  0
M  END
> <VConfSearch Rank>
731

> <Conf_Id>
76

> <Delta U+W>
-3.175

> <U+W>
3.248

> <U>
5.336

> <W>
-2.088

> <W(PB)>
-4.098

> <W(SA)>
2.010

> <Valence>
12.390

> <Coulomb>
-9.270

> <VdW>
2.216

> <VdW6>
-8.967

> <VdW12>
11.183

> <Bond>
0.218

> <Angle>
2.426

> <Pdih>
9.745

> <Idih>
0.000

> <Tether>
0.000

$$$$
VeraChem MOL file


 22 22  0  0  0  0  0  0  0  0999 V2000     
   18.9462   19.3177   24.1708 C   0  0  0  0  0  0  0  0  0  0  0  0
   18.8048   20.0060   25.0153 H   0  0  0  0  0  0  0  0  0  0  0  0
   18.2333   18.4976   24.3322 H   0  0  0  0  0  0  0  0  0  0  0  0
   20.3851   18.7529   24.2426 C   0  0  0  0  0  0  0  0  0  0  0  0
   21.0686   19.5350   24.5997 H   0  0  0  0  0  0  0  0  0  0  0  0
   20.4047   17.9712   25.0142 H   0  0  0  0  0  0  0  0  0  0  0  0
   20.9238   18.1645   22.9178 C   0  0  0  0  0  0  0  0  0  0  0  0
   20.1294   17.6426   22.3670 H   0  0  0  0  0  0  0  0  0  0  0  0
   21.6753   17.4022   23.1639 H   0  0  0  0  0  0  0  0  0  0  0  0
   21.6073   19.2290   22.0225 C   0  0  0  0  0  0  0  0  0  0  0  0
   22.3447   19.7820   22.6184 H   0  0  0  0  0  0  0  0  0  0  0  0
   22.1846   18.7134   21.2438 H   0  0  0  0  0  0  0  0  0  0  0  0
   20.6688   20.2416   21.3276 C   0  0  0  0  0  0  0  0  0  0  0  0
   21.3103   21.0209   20.8916 H   0  0  0  0  0  0  0  0  0  0  0  0
   19.6588   20.9532   22.2625 C   0  0  0  0  0  0  0  0  0  0  0  0
   20.1970   21.4675   23.0692 H   0  0  0  0  0  0  0  0  0  0  0  0
   19.1705   21.7455   21.6806 H   0  0  0  0  0  0  0  0  0  0  0  0
   18.5564   20.0398   22.8590 C   0  0  0  0  0  0  0  0  0  0  0  0
   17.6645   20.6480   23.0613 H   0  0  0  0  0  0  0  0  0  0  0  0
   18.2391   19.2972   22.1151 H   0  0  0  0  0  0  0  0  0  0  0  0
   19.9783   19.5903   20.2660 O   0  0  0  0  0  0  0  0  0  0  0  0
   19.3606   20.2496   19.8892 H   0  0  0  0  0  0  0  0  0  0  0  0
  1  2  1  0  0  0  0
  1  3  1  0  0  0  0
  1  4  1  0  0  0  0
  4  5  1  0  0  0  0
  4  6  1  0  0  0  0
  4  7  1  0  0  0  0
  7  8  1  0  0  0  0
  7  9  1  0  0  0  0
  7 10  1  0  0  0  0
 10 11  1  0  0  0  0
 10 12  1  0  0  0  0
 10 13  1  0  0  0  0
 13 14  1  0  0  0  0
 13 15  1  0  0  0  0
 15 16  1  0  0  0  0
 15 17  1  0  0  0  0
  1 18  1  0  0  0  0
 15 18  1  0  0  0  0
 18 19  1  0  0  0  0
 18 20  1  0  0  0  0
 13 21  1  0  0  0  0
 21 22  1  0  0  0  0
M  END
> <VConfSearch Rank>
732

> <Conf_Id>
95

> <Delta U+W>
-2.289

> <U+W>
4.134

> <U>
6.373

> <W>
-2.240

> <W(PB)>
-4.254

> <W(SA)>
2.015

> <Valence>
12.093

> <Coulomb>
-8.058

> <VdW>
2.339

> <VdW6>
-9.683

> <VdW12>
12.022

> <Bond>
0.268

> <Angle>
3.005

> <Pdih>
8.820

> <Idih>
0.000

> <Tether>
0.000

$$$$
VeraChem MOL file


 22 22  0  0  0  0  0  0  0  0999 V2000     
   21.2290   18.7659   21.4794 C   0  0  0  0  0  0  0  0  0  0  0  0
   22.0757   19.2057   20.9350 H   0  0  0  0  0  0  0  0  0  0  0  0
   21.2190   17.7021   21.2055 H   0  0  0  0  0  0  0  0  0  0  0  0
   19.9276   19.4275   20.9666 C   0  0  0  0  0  0  0  0  0  0  0  0
   20.1181   20.4863   20.7452 H   0  0  0  0  0  0  0  0  0  0  0  0
   19.6705   18.9679   20.0025 H   0  0  0  0  0  0  0  0  0  0  0  0
   18.7141   19.3107   21.9180 C   0  0  0  0  0  0  0  0  0  0  0  0
   18.6991   18.3326   22.4180 H   0  0  0  0  0  0  0  0  0  0  0  0
   17.8000   19.3568   21.3108 H   0  0  0  0  0  0  0  0  0  0  0  0
   18.6527   20.4630   22.9523 C   0  0  0  0  0  0  0  0  0  0  0  0
   18.7563   21.4218   22.4280 H   0  0  0  0  0  0  0  0  0  0  0  0
   17.6495   20.4818   23.3976 H   0  0  0  0  0  0  0  0  0  0  0  0
   19.6921   20.4096   24.0954 C   0  0  0  0  0  0  0  0  0  0  0  0
   19.6294   21.3702   24.6267 H   0  0  0  0  0  0  0  0  0  0  0  0
   21.1628   20.2378   23.6396 C   0  0  0  0  0  0  0  0  0  0  0  0
   21.4408   21.0508   22.9568 H   0  0  0  0  0  0  0  0  0  0  0  0
   21.7945   20.3635   24.5284 H   0  0  0  0  0  0  0  0  0  0  0  0
   21.4990   18.8655   22.9998 C   0  0  0  0  0  0  0  0  0  0  0  0
   22.5625   18.6490   23.1684 H   0  0  0  0  0  0  0  0  0  0  0  0
   20.9547   18.0672   23.5213 H   0  0  0  0  0  0  0  0  0  0  0  0
   19.3382   19.3743   25.0074 O   0  0  0  0  0  0  0  0  0  0  0  0
   18.4007   19.5199   25.2485 H   0  0  0  0  0  0  0  0  0  0  0  0
  1  2  1  0  0  0  0
  1  3  1  0  0  0  0
  1  4  1  0  0  0  0
  4  5  1  0  0  0  0
  4  6  1  0  0  0  0
  4  7  1  0  0  0  0
  7  8  1  0  0  0  0
  7  9  1  0  0  0  0
  7 10  1  0  0  0  0
 10 11  1  0  0  0  0
 10 12  1  0  0  0  0
 10 13  1  0  0  0  0
 13 14  1  0  0  0  0
 13 15  1  0  0  0  0
 15 16  1  0  0  0  0
 15 17  1  0  0  0  0
  1 18  1  0  0  0  0
 15 18  1  0  0  0  0
 18 19  1  0  0  0  0
 18 20  1  0  0  0  0
 13 21  1  0  0  0  0
 21 22  1  0  0  0  0
M  END
> <VConfSearch Rank>
733

> <Conf_Id>
41

> <Delta U+W>
-2.114

> <U+W>
4.310

> <U>
6.598

> <W>
-2.289

> <W(PB)>
-4.294

> <W(SA)>
2.005

> <Valence>
12.082

> <Coulomb>
-7.801

> <VdW>
2.317

> <VdW6>
-9.658

> <VdW12>
11.975

> <Bond>
0.267

> <Angle>
3.051

> <Pdih>
8.764

> <Idih>
0.000

> <Tether>
0.000

$$$$
VeraChem MOL file


 22 22  0  0  0  0  0  0  0  0999 V2000     
   19.0503   20.7369   23.2320 C   0  0  0  0  0  0  0  0  0  0  0  0
   18.4588   21.4607   23.8089 H   0  0  0  0  0  0  0  0  0  0  0  0
   19.0581   21.1018   22.1957 H   0  0  0  0  0  0  0  0  0  0  0  0
   18.3426   19.3664   23.3236 C   0  0  0  0  0  0  0  0  0  0  0  0
   18.4003   18.9911   24.3543 H   0  0  0  0  0  0  0  0  0  0  0  0
   17.2737   19.5090   23.1145 H   0  0  0  0  0  0  0  0  0  0  0  0
   18.8862   18.2946   22.3536 C   0  0  0  0  0  0  0  0  0  0  0  0
   18.6363   18.5751   21.3218 H   0  0  0  0  0  0  0  0  0  0  0  0
   18.3427   17.3594   22.5438 H   0  0  0  0  0  0  0  0  0  0  0  0
   20.4077   18.0080   22.4725 C   0  0  0  0  0  0  0  0  0  0  0  0
   20.6719   17.8033   23.5177 H   0  0  0  0  0  0  0  0  0  0  0  0
   20.6140   17.0781   21.9272 H   0  0  0  0  0  0  0  0  0  0  0  0
   21.3504   19.0948   21.8945 C   0  0  0  0  0  0  0  0  0  0  0  0
   22.3337   18.6209   21.7613 H   0  0  0  0  0  0  0  0  0  0  0  0
   21.5879   20.3339   22.7965 C   0  0  0  0  0  0  0  0  0  0  0  0
   22.5138   20.1684   23.3625 H   0  0  0  0  0  0  0  0  0  0  0  0
   21.7911   21.2056   22.1606 H   0  0  0  0  0  0  0  0  0  0  0  0
   20.4813   20.7095   23.8130 C   0  0  0  0  0  0  0  0  0  0  0  0
   20.5198   20.0294   24.6746 H   0  0  0  0  0  0  0  0  0  0  0  0
   20.7170   21.7051   24.2131 H   0  0  0  0  0  0  0  0  0  0  0  0
   20.8975   19.5159   20.6106 O   0  0  0  0  0  0  0  0  0  0  0  0
   21.5488   20.1678   20.2808 H   0  0  0  0  0  0  0  0  0  0  0  0
  1  2  1  0  0  0  0
  1  3  1  0  0  0  0
  1  4  1  0  0  0  0
  4  5  1  0  0  0  0
  4  6  1  0  0  0  0
  4  7  1  0  0  0  0
  7  8  1  0  0  0  0
  7  9  1  0  0  0  0
  7 10  1  0  0  0  0
 10 11  1  0  0  0  0
 10 12  1  0  0  0  0
 10 13  1  0  0  0  0
 13 14  1  0  0  0  0
 13 15  1  0  0  0  0
 15 16  1  0  0  0  0
 15 17  1  0  0  0  0
  1 18  1  0  0  0  0
 15 18  1  0  0  0  0
 18 19  1  0  0  0  0
 18 20  1  0  0  0  0
 13 21  1  0  0  0  0
 21 22  1  0  0  0  0
M  END
> <VConfSearch Rank>
734

> <Conf_Id>
104

> <Delta U+W>
-1.172

> <U+W>
5.252

> <U>
7.482

> <W>
-2.230

> <W(PB)>
-4.220

> <W(SA)>
1.990

> <Valence>
12.309

> <Coulomb>
-7.084

> <VdW>
2.258

> <VdW6>
-9.770

> <VdW12>
12.028

> <Bond>
0.284

> <Angle>
3.491

> <Pdih>
8.535

> <Idih>
0.000

> <Tether>
0.000

$$$$
VeraChem MOL file


 22 22  0  0  0  0  0  0  0  0999 V2000     
   19.0696   20.7503   23.2736 C   0  0  0  0  0  0  0  0  0  0  0  0
   19.8748   21.2312   23.8452 H   0  0  0  0  0  0  0  0  0  0  0  0
   18.1587   21.3236   23.4938 H   0  0  0  0  0  0  0  0  0  0  0  0
   18.8422   19.2988   23.7542 C   0  0  0  0  0  0  0  0  0  0  0  0
   18.2460   19.3245   24.6767 H   0  0  0  0  0  0  0  0  0  0  0  0
   18.2151   18.7685   23.0256 H   0  0  0  0  0  0  0  0  0  0  0  0
   20.1249   18.4787   24.0440 C   0  0  0  0  0  0  0  0  0  0  0  0
   19.8887   17.4117   23.9298 H   0  0  0  0  0  0  0  0  0  0  0  0
   20.3873   18.6070   25.1031 H   0  0  0  0  0  0  0  0  0  0  0  0
   21.3882   18.8135   23.2054 C   0  0  0  0  0  0  0  0  0  0  0  0
   21.8594   19.7177   23.6119 H   0  0  0  0  0  0  0  0  0  0  0  0
   22.1213   18.0117   23.3624 H   0  0  0  0  0  0  0  0  0  0  0  0
   21.1947   18.9963   21.6826 C   0  0  0  0  0  0  0  0  0  0  0  0
   22.1716   18.8292   21.2065 H   0  0  0  0  0  0  0  0  0  0  0  0
   20.7508   20.4266   21.3013 C   0  0  0  0  0  0  0  0  0  0  0  0
   21.4815   21.1404   21.7032 H   0  0  0  0  0  0  0  0  0  0  0  0
   20.8121   20.5243   20.2095 H   0  0  0  0  0  0  0  0  0  0  0  0
   19.3319   20.8535   21.7523 C   0  0  0  0  0  0  0  0  0  0  0  0
   19.1819   21.8979   21.4466 H   0  0  0  0  0  0  0  0  0  0  0  0
   18.5768   20.2743   21.2038 H   0  0  0  0  0  0  0  0  0  0  0  0
   20.2681   18.0460   21.1800 O   0  0  0  0  0  0  0  0  0  0  0  0
   19.4581   18.2018   21.7054 H   0  0  0  0  0  0  0  0  0  0  0  0
  1  2  1  0  0  0  0
  1  3  1  0  0  0  0
  1  4  1  0  0  0  0
  4  5  1  0  0  0  0
  4  6  1  0  0  0  0
  4  7  1  0  0  0  0
  7  8  1  0  0  0  0
  7  9  1  0  0  0  0
  7 10  1  0  0  0  0
 10 11  1  0  0  0  0
 10 12  1  0  0  0  0
 10 13  1  0  0  0  0
 13 14  1  0  0  0  0
 13 15  1  0  0  0  0
 15 16  1  0  0  0  0
 15 17  1  0  0  0  0
  1 18  1  0  0  0  0
 15 18  1  0  0  0  0
 18 19  1  0  0  0  0
 18 20  1  0  0  0  0
 13 21  1  0  0  0  0
 21 22  1  0  0  0  0
M  END
> <VConfSearch Rank>
735

> <Conf_Id>
99

> <Delta U+W>
-3.852

> <U+W>
2.572

> <U>
3.922

> <W>
-1.350

> <W(PB)>
-3.345

> <W(SA)>
1.995

> <Valence>
12.571

> <Coulomb>
-10.581

> <VdW>
1.932

> <VdW6>
-10.483

> <VdW12>
12.415

> <Bond>
0.268

> <Angle>
3.728

> <Pdih>
8.575

> <Idih>
0.000

> <Tether>
0.000

$$$$
VeraChem MOL file


 22 22  0  0  0  0  0  0  0  0999 V2000     
   19.9829   21.1880   23.1521 C   0  0  0  0  0  0  0  0  0  0  0  0
   20.3342   22.2287   23.1242 H   0  0  0  0  0  0  0  0  0  0  0  0
   19.1182   21.1992   23.8291 H   0  0  0  0  0  0  0  0  0  0  0  0
   21.1234   20.3151   23.7531 C   0  0  0  0  0  0  0  0  0  0  0  0
   21.9683   20.9780   23.9855 H   0  0  0  0  0  0  0  0  0  0  0  0
   20.8130   19.9018   24.7222 H   0  0  0  0  0  0  0  0  0  0  0  0
   21.6536   19.1738   22.8481 C   0  0  0  0  0  0  0  0  0  0  0  0
   22.5690   18.7694   23.3012 H   0  0  0  0  0  0  0  0  0  0  0  0
   21.9814   19.5862   21.8858 H   0  0  0  0  0  0  0  0  0  0  0  0
   20.6792   17.9878   22.6060 C   0  0  0  0  0  0  0  0  0  0  0  0
   20.9848   17.4755   21.6846 H   0  0  0  0  0  0  0  0  0  0  0  0
   20.8227   17.2517   23.4083 H   0  0  0  0  0  0  0  0  0  0  0  0
   19.1634   18.2921   22.5179 C   0  0  0  0  0  0  0  0  0  0  0  0
   18.6783   17.3873   22.1243 H   0  0  0  0  0  0  0  0  0  0  0  0
   18.7522   19.4624   21.5910 C   0  0  0  0  0  0  0  0  0  0  0  0
   18.8297   19.1244   20.5496 H   0  0  0  0  0  0  0  0  0  0  0  0
   17.6834   19.6544   21.7548 H   0  0  0  0  0  0  0  0  0  0  0  0
   19.5182   20.8080   21.7230 C   0  0  0  0  0  0  0  0  0  0  0  0
   20.3772   20.8136   21.0406 H   0  0  0  0  0  0  0  0  0  0  0  0
   18.8628   21.6059   21.3482 H   0  0  0  0  0  0  0  0  0  0  0  0
   18.6454   18.5119   23.8205 O   0  0  0  0  0  0  0  0  0  0  0  0
   19.1044   19.3207   24.1240 H   0  0  0  0  0  0  0  0  0  0  0  0
  1  2  1  0  0  0  0
  1  3  1  0  0  0  0
  1  4  1  0  0  0  0
  4  5  1  0  0  0  0
  4  6  1  0  0  0  0
  4  7  1  0  0  0  0
  7  8  1  0  0  0  0
  7  9  1  0  0  0  0
  7 10  1  0  0  0  0
 10 11  1  0  0  0  0
 10 12  1  0  0  0  0
 10 13  1  0  0  0  0
 13 14  1  0  0  0  0
 13 15  1  0  0  0  0
 15 16  1  0  0  0  0
 15 17  1  0  0  0  0
  1 18  1  0  0  0  0
 15 18  1  0  0  0  0
 18 19  1  0  0  0  0
 18 20  1  0  0  0  0
 13 21  1  0  0  0  0
 21 22  1  0  0  0  0
M  END
> <VConfSearch Rank>
736

> <Conf_Id>
98

> <Delta U+W>
0.930

> <U+W>
7.353

> <U>
8.455

> <W>
-1.102

> <W(PB)>
-3.101

> <W(SA)>
2.000

> <Valence>
15.601

> <Coulomb>
-10.573

> <VdW>
3.427

> <VdW6>
-11.360

> <VdW12>
14.787

> <Bond>
0.471

> <Angle>
5.445

> <Pdih>
9.685

> <Idih>
0.000

> <Tether>
0.000

$$$$
VeraChem MOL file


 22 22  0  0  0  0  0  0  0  0999 V2000     
   18.9890   19.0006   21.3840 C   0  0  0  0  0  0  0  0  0  0  0  0
   18.8317   20.0585   21.1372 H   0  0  0  0  0  0  0  0  0  0  0  0
   18.4322   18.4434   20.6183 H   0  0  0  0  0  0  0  0  0  0  0  0
   18.3691   18.6882   22.7697 C   0  0  0  0  0  0  0  0  0  0  0  0
   17.2981   18.9265   22.7142 H   0  0  0  0  0  0  0  0  0  0  0  0
   18.4239   17.6081   22.9620 H   0  0  0  0  0  0  0  0  0  0  0  0
   18.9724   19.4535   23.9801 C   0  0  0  0  0  0  0  0  0  0  0  0
   19.6348   18.7909   24.5521 H   0  0  0  0  0  0  0  0  0  0  0  0
   18.1550   19.7009   24.6708 H   0  0  0  0  0  0  0  0  0  0  0  0
   19.7312   20.7583   23.6204 C   0  0  0  0  0  0  0  0  0  0  0  0
   19.0868   21.3887   22.9952 H   0  0  0  0  0  0  0  0  0  0  0  0
   19.8807   21.3358   24.5426 H   0  0  0  0  0  0  0  0  0  0  0  0
   21.1059   20.5728   22.9135 C   0  0  0  0  0  0  0  0  0  0  0  0
   21.1465   21.2692   22.0635 H   0  0  0  0  0  0  0  0  0  0  0  0
   21.4090   19.1481   22.3857 C   0  0  0  0  0  0  0  0  0  0  0  0
   22.4446   19.1162   22.0230 H   0  0  0  0  0  0  0  0  0  0  0  0
   21.3754   18.4321   23.2157 H   0  0  0  0  0  0  0  0  0  0  0  0
   20.4897   18.6545   21.2407 C   0  0  0  0  0  0  0  0  0  0  0  0
   20.8480   19.0747   20.2910 H   0  0  0  0  0  0  0  0  0  0  0  0
   20.6013   17.5655   21.1494 H   0  0  0  0  0  0  0  0  0  0  0  0
   22.1358   20.9144   23.8342 O   0  0  0  0  0  0  0  0  0  0  0  0
   22.9839   20.8448   23.3483 H   0  0  0  0  0  0  0  0  0  0  0  0
  1  2  1  0  0  0  0
  1  3  1  0  0  0  0
  1  4  1  0  0  0  0
  4  5  1  0  0  0  0
  4  6  1  0  0  0  0
  4  7  1  0  0  0  0
  7  8  1  0  0  0  0
  7  9  1  0  0  0  0
  7 10  1  0  0  0  0
 10 11  1  0  0  0  0
 10 12  1  0  0  0  0
 10 13  1  0  0  0  0
 13 14  1  0  0  0  0
 13 15  1  0  0  0  0
 15 16  1  0  0  0  0
 15 17  1  0  0  0  0
  1 18  1  0  0  0  0
 15 18  1  0  0  0  0
 18 19  1  0  0  0  0
 18 20  1  0  0  0  0
 13 21  1  0  0  0  0
 21 22  1  0  0  0  0
M  END
> <VConfSearch Rank>
737

> <Conf_Id>
141

> <Delta U+W>
0.000

> <U+W>
6.423

> <U>
8.781

> <W>
-2.358

> <W(PB)>
-4.373

> <W(SA)>
2.015

> <Valence>
13.328

> <Coulomb>
-8.387

> <VdW>
3.840

> <VdW6>
-9.744

> <VdW12>
13.584

> <Bond>
0.436

> <Angle>
3.478

> <Pdih>
9.415

> <Idih>
0.000

> <Tether>
0.000

$$$$
VeraChem MOL file


 22 22  0  0  0  0  0  0  0  0999 V2000     
   18.5196   19.8826   21.7428 C   0  0  0  0  0  0  0  0  0  0  0  0
   18.6491   18.8920   21.2861 H   0  0  0  0  0  0  0  0  0  0  0  0
   17.5738   20.2779   21.3476 H   0  0  0  0  0  0  0  0  0  0  0  0
   19.6500   20.8455   21.3061 C   0  0  0  0  0  0  0  0  0  0  0  0
   19.5283   21.0658   20.2367 H   0  0  0  0  0  0  0  0  0  0  0  0
   19.5300   21.8067   21.8243 H   0  0  0  0  0  0  0  0  0  0  0  0
   21.0868   20.3200   21.5296 C   0  0  0  0  0  0  0  0  0  0  0  0
   21.7900   21.1148   21.2458 H   0  0  0  0  0  0  0  0  0  0  0  0
   21.2820   19.4871   20.8403 H   0  0  0  0  0  0  0  0  0  0  0  0
   21.4024   19.8750   22.9786 C   0  0  0  0  0  0  0  0  0  0  0  0
   22.4902   19.7493   23.0577 H   0  0  0  0  0  0  0  0  0  0  0  0
   21.1333   20.6637   23.6932 H   0  0  0  0  0  0  0  0  0  0  0  0
   20.7146   18.5441   23.3570 C   0  0  0  0  0  0  0  0  0  0  0  0
   20.6519   17.9201   22.4539 H   0  0  0  0  0  0  0  0  0  0  0  0
   19.2910   18.6998   23.9387 C   0  0  0  0  0  0  0  0  0  0  0  0
   18.7944   17.7237   23.8649 H   0  0  0  0  0  0  0  0  0  0  0  0
   19.3594   18.9220   25.0121 H   0  0  0  0  0  0  0  0  0  0  0  0
   18.3853   19.7698   23.2794 C   0  0  0  0  0  0  0  0  0  0  0  0
   17.3423   19.5327   23.5299 H   0  0  0  0  0  0  0  0  0  0  0  0
   18.5818   20.7495   23.7360 H   0  0  0  0  0  0  0  0  0  0  0  0
   21.5146   17.8733   24.3231 O   0  0  0  0  0  0  0  0  0  0  0  0
   22.3881   17.7171   23.9070 H   0  0  0  0  0  0  0  0  0  0  0  0
  1  2  1  0  0  0  0
  1  3  1  0  0  0  0
  1  4  1  0  0  0  0
  4  5  1  0  0  0  0
  4  6  1  0  0  0  0
  4  7  1  0  0  0  0
  7  8  1  0  0  0  0
  7  9  1  0  0  0  0
  7 10  1  0  0  0  0
 10 11  1  0  0  0  0
 10 12  1  0  0  0  0
 10 13  1  0  0  0  0
 13 14  1  0  0  0  0
 13 15  1  0  0  0  0
 15 16  1  0  0  0  0
 15 17  1  0  0  0  0
  1 18  1  0  0  0  0
 15 18  1  0  0  0  0
 18 19  1  0  0  0  0
 18 20  1  0  0  0  0
 13 21  1  0  0  0  0
 21 22  1  0  0  0  0
M  END
> <VConfSearch Rank>
738

> <Conf_Id>
144

> <Delta U+W>
-3.291

> <U+W>
3.132

> <U>
5.411

> <W>
-2.279

> <W(PB)>
-4.300

> <W(SA)>
2.021

> <Valence>
11.909

> <Coulomb>
-8.733

> <VdW>
2.236

> <VdW6>
-8.936

> <VdW12>
11.172

> <Bond>
0.223

> <Angle>
2.457

> <Pdih>
9.228

> <Idih>
0.000

> <Tether>
0.000

$$$$
VeraChem MOL file


 22 22  0  0  0  0  0  0  0  0999 V2000     
   18.8256   18.2263   22.6127 C   0  0  0  0  0  0  0  0  0  0  0  0
   18.3686   17.2273   22.6050 H   0  0  0  0  0  0  0  0  0  0  0  0
   17.9934   18.9416   22.5641 H   0  0  0  0  0  0  0  0  0  0  0  0
   19.7305   18.3480   21.3643 C   0  0  0  0  0  0  0  0  0  0  0  0
   20.7039   17.8828   21.5716 H   0  0  0  0  0  0  0  0  0  0  0  0
   19.2916   17.7574   20.5484 H   0  0  0  0  0  0  0  0  0  0  0  0
   19.9442   19.7910   20.8466 C   0  0  0  0  0  0  0  0  0  0  0  0
   19.0974   20.0694   20.2045 H   0  0  0  0  0  0  0  0  0  0  0  0
   20.8272   19.7929   20.1930 H   0  0  0  0  0  0  0  0  0  0  0  0
   20.1130   20.8895   21.9250 C   0  0  0  0  0  0  0  0  0  0  0  0
   20.5766   21.7623   21.4456 H   0  0  0  0  0  0  0  0  0  0  0  0
   19.1216   21.2239   22.2571 H   0  0  0  0  0  0  0  0  0  0  0  0
   20.9497   20.4718   23.1550 C   0  0  0  0  0  0  0  0  0  0  0  0
   21.7452   19.7807   22.8418 H   0  0  0  0  0  0  0  0  0  0  0  0
   20.0925   19.8101   24.2579 C   0  0  0  0  0  0  0  0  0  0  0  0
   20.6805   19.7714   25.1846 H   0  0  0  0  0  0  0  0  0  0  0  0
   19.2234   20.4443   24.4763 H   0  0  0  0  0  0  0  0  0  0  0  0
   19.6067   18.3759   23.9403 C   0  0  0  0  0  0  0  0  0  0  0  0
   20.4670   17.6927   23.9364 H   0  0  0  0  0  0  0  0  0  0  0  0
   18.9627   18.0413   24.7651 H   0  0  0  0  0  0  0  0  0  0  0  0
   21.5459   21.6381   23.7068 O   0  0  0  0  0  0  0  0  0  0  0  0
   20.8091   22.2268   23.9710 H   0  0  0  0  0  0  0  0  0  0  0  0
  1  2  1  0  0  0  0
  1  3  1  0  0  0  0
  1  4  1  0  0  0  0
  4  5  1  0  0  0  0
  4  6  1  0  0  0  0
  4  7  1  0  0  0  0
  7  8  1  0  0  0  0
  7  9  1  0  0  0  0
  7 10  1  0  0  0  0
 10 11  1  0  0  0  0
 10 12  1  0  0  0  0
 10 13  1  0  0  0  0
 13 14  1  0  0  0  0
 13 15  1  0  0  0  0
 15 16  1  0  0  0  0
 15 17  1  0  0  0  0
  1 18  1  0  0  0  0
 15 18  1  0  0  0  0
 18 19  1  0  0  0  0
 18 20  1  0  0  0  0
 13 21  1  0  0  0  0
 21 22  1  0  0  0  0
M  END
> <VConfSearch Rank>
739

> <Conf_Id>
76

> <Delta U+W>
-3.175

> <U+W>
3.248

> <U>
5.336

> <W>
-2.088

> <W(PB)>
-4.098

> <W(SA)>
2.010

> <Valence>
12.390

> <Coulomb>
-9.270

> <VdW>
2.216

> <VdW6>
-8.967

> <VdW12>
11.183

> <Bond>
0.218

> <Angle>
2.426

> <Pdih>
9.745

> <Idih>
0.000

> <Tether>
0.000

$$$$
VeraChem MOL file


 22 22  0  0  0  0  0  0  0  0999 V2000     
   21.2351   18.4853   21.6843 C   0  0  0  0  0  0  0  0  0  0  0  0
   22.1306   18.8096   21.1369 H   0  0  0  0  0  0  0  0  0  0  0  0
   21.2090   17.3910   21.5915 H   0  0  0  0  0  0  0  0  0  0  0  0
   19.9936   19.0783   20.9760 C   0  0  0  0  0  0  0  0  0  0  0  0
   20.2305   20.0833   20.6013 H   0  0  0  0  0  0  0  0  0  0  0  0
   19.7907   18.4721   20.0826 H   0  0  0  0  0  0  0  0  0  0  0  0
   18.7138   19.1406   21.8419 C   0  0  0  0  0  0  0  0  0  0  0  0
   18.6363   18.2598   22.4938 H   0  0  0  0  0  0  0  0  0  0  0  0
   17.8455   19.1002   21.1706 H   0  0  0  0  0  0  0  0  0  0  0  0
   18.6112   20.4481   22.6678 C   0  0  0  0  0  0  0  0  0  0  0  0
   18.7638   21.3078   22.0028 H   0  0  0  0  0  0  0  0  0  0  0  0
   17.5843   20.5451   23.0439 H   0  0  0  0  0  0  0  0  0  0  0  0
   19.5729   20.5731   23.8713 C   0  0  0  0  0  0  0  0  0  0  0  0
   19.5015   21.6108   24.2278 H   0  0  0  0  0  0  0  0  0  0  0  0
   21.0650   20.3020   23.5537 C   0  0  0  0  0  0  0  0  0  0  0  0
   21.4050   20.9785   22.7590 H   0  0  0  0  0  0  0  0  0  0  0  0
   21.6475   20.5742   24.4433 H   0  0  0  0  0  0  0  0  0  0  0  0
   21.4037   18.8349   23.1822 C   0  0  0  0  0  0  0  0  0  0  0  0
   22.4465   18.6314   23.4604 H   0  0  0  0  0  0  0  0  0  0  0  0
   20.8015   18.1443   23.7872 H   0  0  0  0  0  0  0  0  0  0  0  0
   19.1309   19.7134   24.9171 O   0  0  0  0  0  0  0  0  0  0  0  0
   19.7930   19.7841   25.6348 H   0  0  0  0  0  0  0  0  0  0  0  0
  1  2  1  0  0  0  0
  1  3  1  0  0  0  0
  1  4  1  0  0  0  0
  4  5  1  0  0  0  0
  4  6  1  0  0  0  0
  4  7  1  0  0  0  0
  7  8  1  0  0  0  0
  7  9  1  0  0  0  0
  7 10  1  0  0  0  0
 10 11  1  0  0  0  0
 10 12  1  0  0  0  0
 10 13  1  0  0  0  0
 13 14  1  0  0  0  0
 13 15  1  0  0  0  0
 15 16  1  0  0  0  0
 15 17  1  0  0  0  0
  1 18  1  0  0  0  0
 15 18  1  0  0  0  0
 18 19  1  0  0  0  0
 18 20  1  0  0  0  0
 13 21  1  0  0  0  0
 21 22  1  0  0  0  0
M  END
> <VConfSearch Rank>
740

> <Conf_Id>
95

> <Delta U+W>
-2.289

> <U+W>
4.134

> <U>
6.373

> <W>
-2.240

> <W(PB)>
-4.254

> <W(SA)>
2.015

> <Valence>
12.093

> <Coulomb>
-8.058

> <VdW>
2.339

> <VdW6>
-9.683

> <VdW12>
12.022

> <Bond>
0.268

> <Angle>
3.005

> <Pdih>
8.820

> <Idih>
0.000

> <Tether>
0.000

$$$$
VeraChem MOL file


 22 22  0  0  0  0  0  0  0  0999 V2000     
   19.4301   18.0248   21.8684 C   0  0  0  0  0  0  0  0  0  0  0  0
   18.5954   17.9078   21.1639 H   0  0  0  0  0  0  0  0  0  0  0  0
   19.8769   17.0263   21.9694 H   0  0  0  0  0  0  0  0  0  0  0  0
   18.8512   18.4553   23.2373 C   0  0  0  0  0  0  0  0  0  0  0  0
   17.9958   19.1257   23.0783 H   0  0  0  0  0  0  0  0  0  0  0  0
   18.4375   17.5629   23.7265 H   0  0  0  0  0  0  0  0  0  0  0  0
   19.8625   19.1289   24.1939 C   0  0  0  0  0  0  0  0  0  0  0  0
   20.8521   18.6586   24.1146 H   0  0  0  0  0  0  0  0  0  0  0  0
   19.5240   18.9551   25.2243 H   0  0  0  0  0  0  0  0  0  0  0  0
   19.9579   20.6608   23.9803 C   0  0  0  0  0  0  0  0  0  0  0  0
   18.9462   21.0868   23.9798 H   0  0  0  0  0  0  0  0  0  0  0  0
   20.4605   21.1057   24.8489 H   0  0  0  0  0  0  0  0  0  0  0  0
   20.6913   21.1267   22.7017 C   0  0  0  0  0  0  0  0  0  0  0  0
   20.5184   22.2090   22.6130 H   0  0  0  0  0  0  0  0  0  0  0  0
   20.1948   20.4781   21.3852 C   0  0  0  0  0  0  0  0  0  0  0  0
   19.1213   20.6664   21.2564 H   0  0  0  0  0  0  0  0  0  0  0  0
   20.6922   21.0012   20.5583 H   0  0  0  0  0  0  0  0  0  0  0  0
   20.4910   18.9623   21.2441 C   0  0  0  0  0  0  0  0  0  0  0  0
   20.5718   18.7168   20.1767 H   0  0  0  0  0  0  0  0  0  0  0  0
   21.4772   18.7336   21.6694 H   0  0  0  0  0  0  0  0  0  0  0  0
   22.0910   20.9122   22.8555 O   0  0  0  0  0  0  0  0  0  0  0  0
   22.3472   21.3247   23.7054 H   0  0  0  0  0  0  0  0  0  0  0  0
  1  2  1  0  0  0  0
  1  3  1  0  0  0  0
  1  4  1  0  0  0  0
  4  5  1  0  0  0  0
  4  6  1  0  0  0  0
  4  7  1  0  0  0  0
  7  8  1  0  0  0  0
  7  9  1  0  0  0  0
  7 10  1  0  0  0  0
 10 11  1  0  0  0  0
 10 12  1  0  0  0  0
 10 13  1  0  0  0  0
 13 14  1  0  0  0  0
 13 15  1  0  0  0  0
 15 16  1  0  0  0  0
 15 17  1  0  0  0  0
  1 18  1  0  0  0  0
 15 18  1  0  0  0  0
 18 19  1  0  0  0  0
 18 20  1  0  0  0  0
 13 21  1  0  0  0  0
 21 22  1  0  0  0  0
M  END
> <VConfSearch Rank>
741

> <Conf_Id>
41

> <Delta U+W>
-2.114

> <U+W>
4.310

> <U>
6.598

> <W>
-2.289

> <W(PB)>
-4.294

> <W(SA)>
2.005

> <Valence>
12.082

> <Coulomb>
-7.801

> <VdW>
2.317

> <VdW6>
-9.658

> <VdW12>
11.975

> <Bond>
0.267

> <Angle>
3.051

> <Pdih>
8.764

> <Idih>
0.000

> <Tether>
0.000

$$$$
VeraChem MOL file


 22 22  0  0  0  0  0  0  0  0999 V2000     
   18.6122   18.7672   22.6090 C   0  0  0  0  0  0  0  0  0  0  0  0
   17.5630   18.4887   22.4409 H   0  0  0  0  0  0  0  0  0  0  0  0
   19.1710   17.8251   22.6945 H   0  0  0  0  0  0  0  0  0  0  0  0
   18.6844   19.5670   23.9291 C   0  0  0  0  0  0  0  0  0  0  0  0
   18.1735   20.5312   23.8030 H   0  0  0  0  0  0  0  0  0  0  0  0
   18.1188   19.0250   24.6990 H   0  0  0  0  0  0  0  0  0  0  0  0
   20.1149   19.8073   24.4593 C   0  0  0  0  0  0  0  0  0  0  0  0
   20.5490   18.8527   24.7851 H   0  0  0  0  0  0  0  0  0  0  0  0
   20.0407   20.4214   25.3667 H   0  0  0  0  0  0  0  0  0  0  0  0
   21.0759   20.5165   23.4670 C   0  0  0  0  0  0  0  0  0  0  0  0
   20.6103   21.4322   23.0809 H   0  0  0  0  0  0  0  0  0  0  0  0
   21.9546   20.8478   24.0351 H   0  0  0  0  0  0  0  0  0  0  0  0
   21.5937   19.6523   22.2884 C   0  0  0  0  0  0  0  0  0  0  0  0
   22.4764   20.1680   21.8832 H   0  0  0  0  0  0  0  0  0  0  0  0
   20.6148   19.4741   21.0987 C   0  0  0  0  0  0  0  0  0  0  0  0
   20.8605   20.2303   20.3418 H   0  0  0  0  0  0  0  0  0  0  0  0
   20.8115   18.5082   20.6152 H   0  0  0  0  0  0  0  0  0  0  0  0
   19.0975   19.5823   21.3900 C   0  0  0  0  0  0  0  0  0  0  0  0
   18.8153   20.6368   21.5117 H   0  0  0  0  0  0  0  0  0  0  0  0
   18.5588   19.2346   20.4980 H   0  0  0  0  0  0  0  0  0  0  0  0
   22.0179   18.3747   22.7559 O   0  0  0  0  0  0  0  0  0  0  0  0
   22.3691   17.8921   21.9803 H   0  0  0  0  0  0  0  0  0  0  0  0
  1  2  1  0  0  0  0
  1  3  1  0  0  0  0
  1  4  1  0  0  0  0
  4  5  1  0  0  0  0
  4  6  1  0  0  0  0
  4  7  1  0  0  0  0
  7  8  1  0  0  0  0
  7  9  1  0  0  0  0
  7 10  1  0  0  0  0
 10 11  1  0  0  0  0
 10 12  1  0  0  0  0
 10 13  1  0  0  0  0
 13 14  1  0  0  0  0
 13 15  1  0  0  0  0
 15 16  1  0  0  0  0
 15 17  1  0  0  0  0
  1 18  1  0  0  0  0
 15 18  1  0  0  0  0
 18 19  1  0  0  0  0
 18 20  1  0  0  0  0
 13 21  1  0  0  0  0
 21 22  1  0  0  0  0
M  END
> <VConfSearch Rank>
742

> <Conf_Id>
104

> <Delta U+W>
-1.172

> <U+W>
5.252

> <U>
7.482

> <W>
-2.230

> <W(PB)>
-4.220

> <W(SA)>
1.990

> <Valence>
12.309

> <Coulomb>
-7.084

> <VdW>
2.258

> <VdW6>
-9.770

> <VdW12>
12.028

> <Bond>
0.284

> <Angle>
3.491

> <Pdih>
8.535

> <Idih>
0.000

> <Tether>
0.000

$$$$
VeraChem MOL file


 22 22  0  0  0  0  0  0  0  0999 V2000     
   18.5824   19.0305   23.1171 C   0  0  0  0  0  0  0  0  0  0  0  0
   18.4537   19.8041   23.8862 H   0  0  0  0  0  0  0  0  0  0  0  0
   17.6835   18.4009   23.1686 H   0  0  0  0  0  0  0  0  0  0  0  0
   19.8040   18.1370   23.4316 C   0  0  0  0  0  0  0  0  0  0  0  0
   19.5144   17.4044   24.1975 H   0  0  0  0  0  0  0  0  0  0  0  0
   20.0540   17.5381   22.5461 H   0  0  0  0  0  0  0  0  0  0  0  0
   21.0653   18.8792   23.9415 C   0  0  0  0  0  0  0  0  0  0  0  0
   21.9478   18.2697   23.7027 H   0  0  0  0  0  0  0  0  0  0  0  0
   21.0261   18.9172   25.0388 H   0  0  0  0  0  0  0  0  0  0  0  0
   21.2934   20.3279   23.4312 C   0  0  0  0  0  0  0  0  0  0  0  0
   20.6471   21.0129   23.9951 H   0  0  0  0  0  0  0  0  0  0  0  0
   22.3190   20.6210   23.6908 H   0  0  0  0  0  0  0  0  0  0  0  0
   21.0887   20.5830   21.9203 C   0  0  0  0  0  0  0  0  0  0  0  0
   21.6498   21.4930   21.6633 H   0  0  0  0  0  0  0  0  0  0  0  0
   19.6118   20.8497   21.5513 C   0  0  0  0  0  0  0  0  0  0  0  0
   19.2448   21.6897   22.1552 H   0  0  0  0  0  0  0  0  0  0  0  0
   19.5765   21.1966   20.5103 H   0  0  0  0  0  0  0  0  0  0  0  0
   18.6349   19.6576   21.7036 C   0  0  0  0  0  0  0  0  0  0  0  0
   17.6279   20.0131   21.4465 H   0  0  0  0  0  0  0  0  0  0  0  0
   18.8730   18.8838   20.9613 H   0  0  0  0  0  0  0  0  0  0  0  0
   21.5951   19.4981   21.1583 O   0  0  0  0  0  0  0  0  0  0  0  0
   21.1107   18.7202   21.4996 H   0  0  0  0  0  0  0  0  0  0  0  0
  1  2  1  0  0  0  0
  1  3  1  0  0  0  0
  1  4  1  0  0  0  0
  4  5  1  0  0  0  0
  4  6  1  0  0  0  0
  4  7  1  0  0  0  0
  7  8  1  0  0  0  0
  7  9  1  0  0  0  0
  7 10  1  0  0  0  0
 10 11  1  0  0  0  0
 10 12  1  0  0  0  0
 10 13  1  0  0  0  0
 13 14  1  0  0  0  0
 13 15  1  0  0  0  0
 15 16  1  0  0  0  0
 15 17  1  0  0  0  0
  1 18  1  0  0  0  0
 15 18  1  0  0  0  0
 18 19  1  0  0  0  0
 18 20  1  0  0  0  0
 13 21  1  0  0  0  0
 21 22  1  0  0  0  0
M  END
> <VConfSearch Rank>
743

> <Conf_Id>
99

> <Delta U+W>
-3.852

> <U+W>
2.572

> <U>
3.922

> <W>
-1.350

> <W(PB)>
-3.345

> <W(SA)>
1.995

> <Valence>
12.571

> <Coulomb>
-10.581

> <VdW>
1.932

> <VdW6>
-10.483

> <VdW12>
12.415

> <Bond>
0.268

> <Angle>
3.728

> <Pdih>
8.575

> <Idih>
0.000

> <Tether>
0.000

$$$$
VeraChem MOL file


 22 22  0  0  0  0  0  0  0  0999 V2000     
   20.6146   18.0271   22.8711 C   0  0  0  0  0  0  0  0  0  0  0  0
   20.6019   16.9592   22.6128 H   0  0  0  0  0  0  0  0  0  0  0  0
   21.3874   18.1219   23.6456 H   0  0  0  0  0  0  0  0  0  0  0  0
   19.2196   18.3930   23.4575 C   0  0  0  0  0  0  0  0  0  0  0  0
   18.6032   17.4834   23.4533 H   0  0  0  0  0  0  0  0  0  0  0  0
   19.3143   18.6658   24.5171 H   0  0  0  0  0  0  0  0  0  0  0  0
   18.4354   19.4983   22.7052 C   0  0  0  0  0  0  0  0  0  0  0  0
   17.4086   19.5210   23.0950 H   0  0  0  0  0  0  0  0  0  0  0  0
   18.3235   19.2199   21.6499 H   0  0  0  0  0  0  0  0  0  0  0  0
   19.0153   20.9362   22.8096 C   0  0  0  0  0  0  0  0  0  0  0  0
   18.6382   21.5206   21.9605 H   0  0  0  0  0  0  0  0  0  0  0  0
   18.5930   21.4164   23.7025 H   0  0  0  0  0  0  0  0  0  0  0  0
   20.5536   21.1022   22.8742 C   0  0  0  0  0  0  0  0  0  0  0  0
   20.7666   22.1691   22.7154 H   0  0  0  0  0  0  0  0  0  0  0  0
   21.3722   20.3181   21.8192 C   0  0  0  0  0  0  0  0  0  0  0  0
   21.2740   20.8296   20.8530 H   0  0  0  0  0  0  0  0  0  0  0  0
   22.4329   20.4092   22.0890 H   0  0  0  0  0  0  0  0  0  0  0  0
   21.0473   18.8134   21.6072 C   0  0  0  0  0  0  0  0  0  0  0  0
   20.2855   18.7056   20.8252 H   0  0  0  0  0  0  0  0  0  0  0  0
   21.9419   18.3321   21.1892 H   0  0  0  0  0  0  0  0  0  0  0  0
   21.0139   20.7724   24.1752 O   0  0  0  0  0  0  0  0  0  0  0  0
   20.8030   19.8216   24.2666 H   0  0  0  0  0  0  0  0  0  0  0  0
  1  2  1  0  0  0  0
  1  3  1  0  0  0  0
  1  4  1  0  0  0  0
  4  5  1  0  0  0  0
  4  6  1  0  0  0  0
  4  7  1  0  0  0  0
  7  8  1  0  0  0  0
  7  9  1  0  0  0  0
  7 10  1  0  0  0  0
 10 11  1  0  0  0  0
 10 12  1  0  0  0  0
 10 13  1  0  0  0  0
 13 14  1  0  0  0  0
 13 15  1  0  0  0  0
 15 16  1  0  0  0  0
 15 17  1  0  0  0  0
  1 18  1  0  0  0  0
 15 18  1  0  0  0  0
 18 19  1  0  0  0  0
 18 20  1  0  0  0  0
 13 21  1  0  0  0  0
 21 22  1  0  0  0  0
M  END
> <VConfSearch Rank>
744

> <Conf_Id>
98

> <Delta U+W>
0.930

> <U+W>
7.353

> <U>
8.455

> <W>
-1.102

> <W(PB)>
-3.101

> <W(SA)>
2.000

> <Valence>
15.601

> <Coulomb>
-10.573

> <VdW>
3.427

> <VdW6>
-11.360

> <VdW12>
14.787

> <Bond>
0.471

> <Angle>
5.445

> <Pdih>
9.685

> <Idih>
0.000

> <Tether>
0.000

$$$$
VeraChem MOL file


 22 22  0  0  0  0  0  0  0  0999 V2000     
   20.9675   19.4942   24.0857 C   0  0  0  0  0  0  0  0  0  0  0  0
   20.8828   18.4004   24.0494 H   0  0  0  0  0  0  0  0  0  0  0  0
   21.6187   19.7014   24.9458 H   0  0  0  0  0  0  0  0  0  0  0  0
   19.5756   20.1186   24.3592 C   0  0  0  0  0  0  0  0  0  0  0  0
   19.2157   19.7178   25.3166 H   0  0  0  0  0  0  0  0  0  0  0  0
   19.6817   21.2013   24.5111 H   0  0  0  0  0  0  0  0  0  0  0  0
   18.4833   19.8584   23.2850 C   0  0  0  0  0  0  0  0  0  0  0  0
   18.3411   20.7551   22.6679 H   0  0  0  0  0  0  0  0  0  0  0  0
   17.5238   19.7147   23.8001 H   0  0  0  0  0  0  0  0  0  0  0  0
   18.7428   18.6347   22.3670 C   0  0  0  0  0  0  0  0  0  0  0  0
   18.9472   17.7547   22.9895 H   0  0  0  0  0  0  0  0  0  0  0  0
   17.8097   18.3955   21.8391 H   0  0  0  0  0  0  0  0  0  0  0  0
   19.8852   18.7984   21.3221 C   0  0  0  0  0  0  0  0  0  0  0  0
   20.5041   17.8900   21.3517 H   0  0  0  0  0  0  0  0  0  0  0  0
   20.8140   20.0224   21.5207 C   0  0  0  0  0  0  0  0  0  0  0  0
   21.4935   20.0961   20.6617 H   0  0  0  0  0  0  0  0  0  0  0  0
   20.2205   20.9441   21.4947 H   0  0  0  0  0  0  0  0  0  0  0  0
   21.6765   19.9998   22.8073 C   0  0  0  0  0  0  0  0  0  0  0  0
   22.5582   19.3681   22.6332 H   0  0  0  0  0  0  0  0  0  0  0  0
   22.0622   21.0128   22.9859 H   0  0  0  0  0  0  0  0  0  0  0  0
   19.3009   18.9119   20.0295 O   0  0  0  0  0  0  0  0  0  0  0  0
   20.0402   18.9555   19.3879 H   0  0  0  0  0  0  0  0  0  0  0  0
  1  2  1  0  0  0  0
  1  3  1  0  0  0  0
  1  4  1  0  0  0  0
  4  5  1  0  0  0  0
  4  6  1  0  0  0  0
  4  7  1  0  0  0  0
  7  8  1  0  0  0  0
  7  9  1  0  0  0  0
  7 10  1  0  0  0  0
 10 11  1  0  0  0  0
 10 12  1  0  0  0  0
 10 13  1  0  0  0  0
 13 14  1  0  0  0  0
 13 15  1  0  0  0  0
 15 16  1  0  0  0  0
 15 17  1  0  0  0  0
  1 18  1  0  0  0  0
 15 18  1  0  0  0  0
 18 19  1  0  0  0  0
 18 20  1  0  0  0  0
 13 21  1  0  0  0  0
 21 22  1  0  0  0  0
M  END
> <VConfSearch Rank>
745

> <Conf_Id>
141

> <Delta U+W>
0.000

> <U+W>
6.423

> <U>
8.781

> <W>
-2.358

> <W(PB)>
-4.373

> <W(SA)>
2.015

> <Valence>
13.328

> <Coulomb>
-8.387

> <VdW>
3.840

> <VdW6>
-9.744

> <VdW12>
13.584

> <Bond>
0.436

> <Angle>
3.478

> <Pdih>
9.415

> <Idih>
0.000

> <Tether>
0.000

$$$$
VeraChem MOL file


 22 22  0  0  0  0  0  0  0  0999 V2000     
   19.0178   20.1982   21.3249 C   0  0  0  0  0  0  0  0  0  0  0  0
   19.9306   20.6146   20.8775 H   0  0  0  0  0  0  0  0  0  0  0  0
   18.2096   20.3992   20.6085 H   0  0  0  0  0  0  0  0  0  0  0  0
   18.6668   20.9259   22.6451 C   0  0  0  0  0  0  0  0  0  0  0  0
   18.3601   21.9536   22.4074 H   0  0  0  0  0  0  0  0  0  0  0  0
   17.7877   20.4499   23.1006 H   0  0  0  0  0  0  0  0  0  0  0  0
   19.8088   20.9920   23.6853 C   0  0  0  0  0  0  0  0  0  0  0  0
   19.4166   21.4676   24.5945 H   0  0  0  0  0  0  0  0  0  0  0  0
   20.6003   21.6584   23.3162 H   0  0  0  0  0  0  0  0  0  0  0  0
   20.4238   19.6240   24.0692 C   0  0  0  0  0  0  0  0  0  0  0  0
   21.0431   19.7774   24.9627 H   0  0  0  0  0  0  0  0  0  0  0  0
   19.6385   18.9142   24.3600 H   0  0  0  0  0  0  0  0  0  0  0  0
   21.3025   19.0287   22.9461 C   0  0  0  0  0  0  0  0  0  0  0  0
   21.7786   19.8590   22.4050 H   0  0  0  0  0  0  0  0  0  0  0  0
   20.5355   18.1599   21.9233 C   0  0  0  0  0  0  0  0  0  0  0  0
   21.1653   18.0674   21.0290 H   0  0  0  0  0  0  0  0  0  0  0  0
   20.4263   17.1419   22.3207 H   0  0  0  0  0  0  0  0  0  0  0  0
   19.1351   18.6655   21.4953 C   0  0  0  0  0  0  0  0  0  0  0  0
   18.8748   18.1800   20.5448 H   0  0  0  0  0  0  0  0  0  0  0  0
   18.3831   18.3198   22.2175 H   0  0  0  0  0  0  0  0  0  0  0  0
   22.3166   18.2240   23.5353 O   0  0  0  0  0  0  0  0  0  0  0  0
   22.8378   18.8113   24.1219 H   0  0  0  0  0  0  0  0  0  0  0  0
  1  2  1  0  0  0  0
  1  3  1  0  0  0  0
  1  4  1  0  0  0  0
  4  5  1  0  0  0  0
  4  6  1  0  0  0  0
  4  7  1  0  0  0  0
  7  8  1  0  0  0  0
  7  9  1  0  0  0  0
  7 10  1  0  0  0  0
 10 11  1  0  0  0  0
 10 12  1  0  0  0  0
 10 13  1  0  0  0  0
 13 14  1  0  0  0  0
 13 15  1  0  0  0  0
 15 16  1  0  0  0  0
 15 17  1  0  0  0  0
  1 18  1  0  0  0  0
 15 18  1  0  0  0  0
 18 19  1  0  0  0  0
 18 20  1  0  0  0  0
 13 21  1  0  0  0  0
 21 22  1  0  0  0  0
M  END
> <VConfSearch Rank>
746

> <Conf_Id>
144

> <Delta U+W>
-3.291

> <U+W>
3.132

> <U>
5.411

> <W>
-2.279

> <W(PB)>
-4.300

> <W(SA)>
2.021

> <Valence>
11.909

> <Coulomb>
-8.733

> <VdW>
2.236

> <VdW6>
-8.936

> <VdW12>
11.172

> <Bond>
0.223

> <Angle>
2.457

> <Pdih>
9.228

> <Idih>
0.000

> <Tether>
0.000

$$$$
VeraChem MOL file


 22 22  0  0  0  0  0  0  0  0999 V2000     
   21.0653   18.3160   23.1075 C   0  0  0  0  0  0  0  0  0  0  0  0
   21.6735   17.4022   23.1514 H   0  0  0  0  0  0  0  0  0  0  0  0
   21.3670   18.9236   23.9715 H   0  0  0  0  0  0  0  0  0  0  0  0
   19.5778   17.9063   23.2143 C   0  0  0  0  0  0  0  0  0  0  0  0
   19.2123   17.5956   22.2260 H   0  0  0  0  0  0  0  0  0  0  0  0
   19.4999   17.0131   23.8493 H   0  0  0  0  0  0  0  0  0  0  0  0
   18.6389   18.9895   23.7983 C   0  0  0  0  0  0  0  0  0  0  0  0
   18.6828   18.9469   24.8952 H   0  0  0  0  0  0  0  0  0  0  0  0
   17.6060   18.7275   23.5309 H   0  0  0  0  0  0  0  0  0  0  0  0
   18.9181   20.4486   23.3610 C   0  0  0  0  0  0  0  0  0  0  0  0
   18.0144   21.0389   23.5643 H   0  0  0  0  0  0  0  0  0  0  0  0
   19.7015   20.8733   24.0018 H   0  0  0  0  0  0  0  0  0  0  0  0
   19.3223   20.6185   21.8793 C   0  0  0  0  0  0  0  0  0  0  0  0
   18.7925   19.8762   21.2656 H   0  0  0  0  0  0  0  0  0  0  0  0
   20.8461   20.4793   21.6611 C   0  0  0  0  0  0  0  0  0  0  0  0
   21.0938   20.8556   20.6595 H   0  0  0  0  0  0  0  0  0  0  0  0
   21.3783   21.1280   22.3689 H   0  0  0  0  0  0  0  0  0  0  0  0
   21.3978   19.0387   21.7800 C   0  0  0  0  0  0  0  0  0  0  0  0
   21.0319   18.4380   20.9360 H   0  0  0  0  0  0  0  0  0  0  0  0
   22.4898   19.0791   21.6672 H   0  0  0  0  0  0  0  0  0  0  0  0
   18.9385   21.9206   21.4580 O   0  0  0  0  0  0  0  0  0  0  0  0
   19.4275   22.5506   22.0264 H   0  0  0  0  0  0  0  0  0  0  0  0
  1  2  1  0  0  0  0
  1  3  1  0  0  0  0
  1  4  1  0  0  0  0
  4  5  1  0  0  0  0
  4  6  1  0  0  0  0
  4  7  1  0  0  0  0
  7  8  1  0  0  0  0
  7  9  1  0  0  0  0
  7 10  1  0  0  0  0
 10 11  1  0  0  0  0
 10 12  1  0  0  0  0
 10 13  1  0  0  0  0
 13 14  1  0  0  0  0
 13 15  1  0  0  0  0
 15 16  1  0  0  0  0
 15 17  1  0  0  0  0
  1 18  1  0  0  0  0
 15 18  1  0  0  0  0
 18 19  1  0  0  0  0
 18 20  1  0  0  0  0
 13 21  1  0  0  0  0
 21 22  1  0  0  0  0
M  END
> <VConfSearch Rank>
747

> <Conf_Id>
76

> <Delta U+W>
-3.175

> <U+W>
3.248

> <U>
5.336

> <W>
-2.088

> <W(PB)>
-4.098

> <W(SA)>
2.010

> <Valence>
12.390

> <Coulomb>
-9.270

> <VdW>
2.216

> <VdW6>
-8.967

> <VdW12>
11.183

> <Bond>
0.218

> <Angle>
2.426

> <Pdih>
9.745

> <Idih>
0.000

> <Tether>
0.000

$$$$
VeraChem MOL file


 22 22  0  0  0  0  0  0  0  0999 V2000     
   19.4000   20.4960   24.1674 C   0  0  0  0  0  0  0  0  0  0  0  0
   19.4518   20.1962   25.2230 H   0  0  0  0  0  0  0  0  0  0  0  0
   18.9490   21.4977   24.1638 H   0  0  0  0  0  0  0  0  0  0  0  0
   18.4534   19.5172   23.4322 C   0  0  0  0  0  0  0  0  0  0  0  0
   18.5801   18.5065   23.8430 H   0  0  0  0  0  0  0  0  0  0  0  0
   17.4194   19.8029   23.6690 H   0  0  0  0  0  0  0  0  0  0  0  0
   18.6229   19.4730   21.8957 C   0  0  0  0  0  0  0  0  0  0  0  0
   18.8387   20.4727   21.4945 H   0  0  0  0  0  0  0  0  0  0  0  0
   17.6638   19.1686   21.4554 H   0  0  0  0  0  0  0  0  0  0  0  0
   19.6964   18.4525   21.4396 C   0  0  0  0  0  0  0  0  0  0  0  0
   19.4961   17.4825   21.9124 H   0  0  0  0  0  0  0  0  0  0  0  0
   19.5830   18.2834   20.3607 H   0  0  0  0  0  0  0  0  0  0  0  0
   21.1677   18.8428   21.7084 C   0  0  0  0  0  0  0  0  0  0  0  0
   21.7756   17.9509   21.4987 H   0  0  0  0  0  0  0  0  0  0  0  0
   21.4797   19.2752   23.1631 C   0  0  0  0  0  0  0  0  0  0  0  0
   21.1945   18.4751   23.8584 H   0  0  0  0  0  0  0  0  0  0  0  0
   22.5694   19.3712   23.2534 H   0  0  0  0  0  0  0  0  0  0  0  0
   20.8363   20.6156   23.6045 C   0  0  0  0  0  0  0  0  0  0  0  0
   21.4658   21.0710   24.3809 H   0  0  0  0  0  0  0  0  0  0  0  0
   20.8422   21.3291   22.7701 H   0  0  0  0  0  0  0  0  0  0  0  0
   21.5555   19.8678   20.7990 O   0  0  0  0  0  0  0  0  0  0  0  0
   22.4710   20.1199   21.0369 H   0  0  0  0  0  0  0  0  0  0  0  0
  1  2  1  0  0  0  0
  1  3  1  0  0  0  0
  1  4  1  0  0  0  0
  4  5  1  0  0  0  0
  4  6  1  0  0  0  0
  4  7  1  0  0  0  0
  7  8  1  0  0  0  0
  7  9  1  0  0  0  0
  7 10  1  0  0  0  0
 10 11  1  0  0  0  0
 10 12  1  0  0  0  0
 10 13  1  0  0  0  0
 13 14  1  0  0  0  0
 13 15  1  0  0  0  0
 15 16  1  0  0  0  0
 15 17  1  0  0  0  0
  1 18  1  0  0  0  0
 15 18  1  0  0  0  0
 18 19  1  0  0  0  0
 18 20  1  0  0  0  0
 13 21  1  0  0  0  0
 21 22  1  0  0  0  0
M  END
> <VConfSearch Rank>
748

> <Conf_Id>
95

> <Delta U+W>
-2.289

> <U+W>
4.134

> <U>
6.373

> <W>
-2.240

> <W(PB)>
-4.254

> <W(SA)>
2.015

> <Valence>
12.093

> <Coulomb>
-8.058

> <VdW>
2.339

> <VdW6>
-9.683

> <VdW12>
12.022

> <Bond>
0.268

> <Angle>
3.005

> <Pdih>
8.820

> <Idih>
0.000

> <Tether>
0.000

$$$$
VeraChem MOL file


 22 22  0  0  0  0  0  0  0  0999 V2000     
   19.4840   18.7729   21.0924 C   0  0  0  0  0  0  0  0  0  0  0  0
   19.8830   17.8546   20.6406 H   0  0  0  0  0  0  0  0  0  0  0  0
   18.6564   19.0892   20.4429 H   0  0  0  0  0  0  0  0  0  0  0  0
   20.5919   19.8524   21.0536 C   0  0  0  0  0  0  0  0  0  0  0  0
   21.5691   19.3800   21.2222 H   0  0  0  0  0  0  0  0  0  0  0  0
   20.6346   20.2583   20.0337 H   0  0  0  0  0  0  0  0  0  0  0  0
   20.4052   21.0194   22.0510 C   0  0  0  0  0  0  0  0  0  0  0  0
   19.3451   21.2920   22.1432 H   0  0  0  0  0  0  0  0  0  0  0  0
   20.9126   21.9026   21.6401 H   0  0  0  0  0  0  0  0  0  0  0  0
   21.0243   20.7228   23.4403 C   0  0  0  0  0  0  0  0  0  0  0  0
   22.0555   20.3713   23.3061 H   0  0  0  0  0  0  0  0  0  0  0  0
   21.1084   21.6659   23.9956 H   0  0  0  0  0  0  0  0  0  0  0  0
   20.2656   19.7044   24.3217 C   0  0  0  0  0  0  0  0  0  0  0  0
   20.9168   19.4786   25.1785 H   0  0  0  0  0  0  0  0  0  0  0  0
   19.9361   18.3559   23.6338 C   0  0  0  0  0  0  0  0  0  0  0  0
   20.8593   17.8829   23.2752 H   0  0  0  0  0  0  0  0  0  0  0  0
   19.5371   17.6866   24.4069 H   0  0  0  0  0  0  0  0  0  0  0  0
   18.8978   18.4380   22.4847 C   0  0  0  0  0  0  0  0  0  0  0  0
   18.3788   17.4730   22.4089 H   0  0  0  0  0  0  0  0  0  0  0  0
   18.1173   19.1674   22.7384 H   0  0  0  0  0  0  0  0  0  0  0  0
   19.0730   20.3052   24.8174 O   0  0  0  0  0  0  0  0  0  0  0  0
   19.3346   21.1563   25.2241 H   0  0  0  0  0  0  0  0  0  0  0  0
  1  2  1  0  0  0  0
  1  3  1  0  0  0  0
  1  4  1  0  0  0  0
  4  5  1  0  0  0  0
  4  6  1  0  0  0  0
  4  7  1  0  0  0  0
  7  8  1  0  0  0  0
  7  9  1  0  0  0  0
  7 10  1  0  0  0  0
 10 11  1  0  0  0  0
 10 12  1  0  0  0  0
 10 13  1  0  0  0  0
 13 14  1  0  0  0  0
 13 15  1  0  0  0  0
 15 16  1  0  0  0  0
 15 17  1  0  0  0  0
  1 18  1  0  0  0  0
 15 18  1  0  0  0  0
 18 19  1  0  0  0  0
 18 20  1  0  0  0  0
 13 21  1  0  0  0  0
 21 22  1  0  0  0  0
M  END
> <VConfSearch Rank>
749

> <Conf_Id>
41

> <Delta U+W>
-2.114

> <U+W>
4.310

> <U>
6.598

> <W>
-2.289

> <W(PB)>
-4.294

> <W(SA)>
2.005

> <Valence>
12.082

> <Coulomb>
-7.801

> <VdW>
2.317

> <VdW6>
-9.658

> <VdW12>
11.975

> <Bond>
0.267

> <Angle>
3.051

> <Pdih>
8.764

> <Idih>
0.000

> <Tether>
0.000

$$$$
VeraChem MOL file


 22 22  0  0  0  0  0  0  0  0999 V2000     
   19.4623   20.8808   21.9504 C   0  0  0  0  0  0  0  0  0  0  0  0
   18.9704   21.5897   21.2707 H   0  0  0  0  0  0  0  0  0  0  0  0
   19.5597   21.3965   22.9156 H   0  0  0  0  0  0  0  0  0  0  0  0
   20.8534   20.5502   21.3646 C   0  0  0  0  0  0  0  0  0  0  0  0
   20.7339   19.9811   20.4327 H   0  0  0  0  0  0  0  0  0  0  0  0
   21.3474   21.4898   21.0824 H   0  0  0  0  0  0  0  0  0  0  0  0
   21.7892   19.7804   22.3221 C   0  0  0  0  0  0  0  0  0  0  0  0
   22.0784   20.4349   23.1551 H   0  0  0  0  0  0  0  0  0  0  0  0
   22.7206   19.5626   21.7824 H   0  0  0  0  0  0  0  0  0  0  0  0
   21.2185   18.4443   22.8700 C   0  0  0  0  0  0  0  0  0  0  0  0
   20.8577   17.8210   22.0420 H   0  0  0  0  0  0  0  0  0  0  0  0
   22.0506   17.8872   23.3193 H   0  0  0  0  0  0  0  0  0  0  0  0
   20.1160   18.5703   23.9529 C   0  0  0  0  0  0  0  0  0  0  0  0
   20.0524   17.5931   24.4533 H   0  0  0  0  0  0  0  0  0  0  0  0
   18.6886   18.8817   23.4325 C   0  0  0  0  0  0  0  0  0  0  0  0
   18.1497   17.9306   23.3322 H   0  0  0  0  0  0  0  0  0  0  0  0
   18.1419   19.4429   24.2017 H   0  0  0  0  0  0  0  0  0  0  0  0
   18.5599   19.6344   22.0849 C   0  0  0  0  0  0  0  0  0  0  0  0
   18.7524   18.9443   21.2524 H   0  0  0  0  0  0  0  0  0  0  0  0
   17.5123   19.9455   21.9730 H   0  0  0  0  0  0  0  0  0  0  0  0
   20.4893   19.5336   24.9345 O   0  0  0  0  0  0  0  0  0  0  0  0
   19.7794   19.5406   25.6082 H   0  0  0  0  0  0  0  0  0  0  0  0
  1  2  1  0  0  0  0
  1  3  1  0  0  0  0
  1  4  1  0  0  0  0
  4  5  1  0  0  0  0
  4  6  1  0  0  0  0
  4  7  1  0  0  0  0
  7  8  1  0  0  0  0
  7  9  1  0  0  0  0
  7 10  1  0  0  0  0
 10 11  1  0  0  0  0
 10 12  1  0  0  0  0
 10 13  1  0  0  0  0
 13 14  1  0  0  0  0
 13 15  1  0  0  0  0
 15 16  1  0  0  0  0
 15 17  1  0  0  0  0
  1 18  1  0  0  0  0
 15 18  1  0  0  0  0
 18 19  1  0  0  0  0
 18 20  1  0  0  0  0
 13 21  1  0  0  0  0
 21 22  1  0  0  0  0
M  END
> <VConfSearch Rank>
750

> <Conf_Id>
104

> <Delta U+W>
-1.172

> <U+W>
5.252

> <U>
7.482

> <W>
-2.230

> <W(PB)>
-4.220

> <W(SA)>
1.990

> <Valence>
12.309

> <Coulomb>
-7.084

> <VdW>
2.258

> <VdW6>
-9.770

> <VdW12>
12.028

> <Bond>
0.284

> <Angle>
3.491

> <Pdih>
8.535

> <Idih>
0.000

> <Tether>
0.000

$$$$
VeraChem MOL file


 22 22  0  0  0  0  0  0  0  0999 V2000     
   18.6647   18.7467   22.8720 C   0  0  0  0  0  0  0  0  0  0  0  0
   19.1643   17.7719   22.7909 H   0  0  0  0  0  0  0  0  0  0  0  0
   17.5960   18.5285   23.0037 H   0  0  0  0  0  0  0  0  0  0  0  0
   18.8239   19.5591   21.5666 C   0  0  0  0  0  0  0  0  0  0  0  0
   18.0973   19.1868   20.8313 H   0  0  0  0  0  0  0  0  0  0  0  0
   18.5336   20.6020   21.7496 H   0  0  0  0  0  0  0  0  0  0  0  0
   20.2271   19.5080   20.9108 C   0  0  0  0  0  0  0  0  0  0  0  0
   20.3620   20.4159   20.3068 H   0  0  0  0  0  0  0  0  0  0  0  0
   20.2453   18.6760   20.1936 H   0  0  0  0  0  0  0  0  0  0  0  0
   21.4481   19.3382   21.8550 C   0  0  0  0  0  0  0  0  0  0  0  0
   21.5323   18.2833   22.1466 H   0  0  0  0  0  0  0  0  0  0  0  0
   22.3563   19.5499   21.2759 H   0  0  0  0  0  0  0  0  0  0  0  0
   21.4782   20.2100   23.1314 C   0  0  0  0  0  0  0  0  0  0  0  0
   22.5258   20.2743   23.4588 H   0  0  0  0  0  0  0  0  0  0  0  0
   20.6818   19.5891   24.3012 C   0  0  0  0  0  0  0  0  0  0  0  0
   21.0687   18.5799   24.4933 H   0  0  0  0  0  0  0  0  0  0  0  0
   20.9005   20.1669   25.2087 H   0  0  0  0  0  0  0  0  0  0  0  0
   19.1447   19.5127   24.1277 C   0  0  0  0  0  0  0  0  0  0  0  0
   18.7305   19.0144   25.0148 H   0  0  0  0  0  0  0  0  0  0  0  0
   18.7186   20.5251   24.1322 H   0  0  0  0  0  0  0  0  0  0  0  0
   21.0005   21.5172   22.8537 O   0  0  0  0  0  0  0  0  0  0  0  0
   20.1035   21.3717   22.4924 H   0  0  0  0  0  0  0  0  0  0  0  0
  1  2  1  0  0  0  0
  1  3  1  0  0  0  0
  1  4  1  0  0  0  0
  4  5  1  0  0  0  0
  4  6  1  0  0  0  0
  4  7  1  0  0  0  0
  7  8  1  0  0  0  0
  7  9  1  0  0  0  0
  7 10  1  0  0  0  0
 10 11  1  0  0  0  0
 10 12  1  0  0  0  0
 10 13  1  0  0  0  0
 13 14  1  0  0  0  0
 13 15  1  0  0  0  0
 15 16  1  0  0  0  0
 15 17  1  0  0  0  0
  1 18  1  0  0  0  0
 15 18  1  0  0  0  0
 18 19  1  0  0  0  0
 18 20  1  0  0  0  0
 13 21  1  0  0  0  0
 21 22  1  0  0  0  0
M  END
> <VConfSearch Rank>
751

> <Conf_Id>
99

> <Delta U+W>
-3.852

> <U+W>
2.572

> <U>
3.922

> <W>
-1.350

> <W(PB)>
-3.345

> <W(SA)>
1.995

> <Valence>
12.571

> <Coulomb>
-10.581

> <VdW>
1.932

> <VdW6>
-10.483

> <VdW12>
12.415

> <Bond>
0.268

> <Angle>
3.728

> <Pdih>
8.575

> <Idih>
0.000

> <Tether>
0.000

$$$$
VeraChem MOL file


 22 22  0  0  0  0  0  0  0  0999 V2000     
   18.6885   18.6723   22.5727 C   0  0  0  0  0  0  0  0  0  0  0  0
   17.6584   18.4353   22.8727 H   0  0  0  0  0  0  0  0  0  0  0  0
   18.9330   17.9369   21.7946 H   0  0  0  0  0  0  0  0  0  0  0  0
   19.6064   18.4659   23.8132 C   0  0  0  0  0  0  0  0  0  0  0  0
   18.9735   18.1396   24.6500 H   0  0  0  0  0  0  0  0  0  0  0  0
   20.2971   17.6303   23.6380 H   0  0  0  0  0  0  0  0  0  0  0  0
   20.4044   19.7095   24.2817 C   0  0  0  0  0  0  0  0  0  0  0  0
   20.8495   19.4867   25.2610 H   0  0  0  0  0  0  0  0  0  0  0  0
   19.7150   20.5407   24.4749 H   0  0  0  0  0  0  0  0  0  0  0  0
   21.5448   20.1824   23.3379 C   0  0  0  0  0  0  0  0  0  0  0  0
   21.7533   21.2381   23.5542 H   0  0  0  0  0  0  0  0  0  0  0  0
   22.4634   19.6442   23.6073 H   0  0  0  0  0  0  0  0  0  0  0  0
   21.3433   20.0256   21.8105 C   0  0  0  0  0  0  0  0  0  0  0  0
   22.1351   20.6114   21.3221 H   0  0  0  0  0  0  0  0  0  0  0  0
   19.9943   20.5306   21.2420 C   0  0  0  0  0  0  0  0  0  0  0  0
   20.0196   21.6275   21.2103 H   0  0  0  0  0  0  0  0  0  0  0  0
   19.9372   20.2114   20.1928 H   0  0  0  0  0  0  0  0  0  0  0  0
   18.6861   20.0957   21.9591 C   0  0  0  0  0  0  0  0  0  0  0  0
   18.4244   20.8309   22.7301 H   0  0  0  0  0  0  0  0  0  0  0  0
   17.8668   20.1571   21.2298 H   0  0  0  0  0  0  0  0  0  0  0  0
   21.5376   18.6694   21.4414 O   0  0  0  0  0  0  0  0  0  0  0  0
   20.8143   18.1943   21.8975 H   0  0  0  0  0  0  0  0  0  0  0  0
  1  2  1  0  0  0  0
  1  3  1  0  0  0  0
  1  4  1  0  0  0  0
  4  5  1  0  0  0  0
  4  6  1  0  0  0  0
  4  7  1  0  0  0  0
  7  8  1  0  0  0  0
  7  9  1  0  0  0  0
  7 10  1  0  0  0  0
 10 11  1  0  0  0  0
 10 12  1  0  0  0  0
 10 13  1  0  0  0  0
 13 14  1  0  0  0  0
 13 15  1  0  0  0  0
 15 16  1  0  0  0  0
 15 17  1  0  0  0  0
  1 18  1  0  0  0  0
 15 18  1  0  0  0  0
 18 19  1  0  0  0  0
 18 20  1  0  0  0  0
 13 21  1  0  0  0  0
 21 22  1  0  0  0  0
M  END
> <VConfSearch Rank>
752

> <Conf_Id>
98

> <Delta U+W>
0.930

> <U+W>
7.353

> <U>
8.455

> <W>
-1.102

> <W(PB)>
-3.101

> <W(SA)>
2.000

> <Valence>
15.601

> <Coulomb>
-10.573

> <VdW>
3.427

> <VdW6>
-11.360

> <VdW12>
14.787

> <Bond>
0.471

> <Angle>
5.445

> <Pdih>
9.685

> <Idih>
0.000

> <Tether>
0.000

$$$$
VeraChem MOL file


 22 22  0  0  0  0  0  0  0  0999 V2000     
   20.5085   19.4434   21.0109 C   0  0  0  0  0  0  0  0  0  0  0  0
   19.4670   19.1982   20.7664 H   0  0  0  0  0  0  0  0  0  0  0  0
   21.0246   19.4937   20.0425 H   0  0  0  0  0  0  0  0  0  0  0  0
   21.1349   18.2968   21.8447 C   0  0  0  0  0  0  0  0  0  0  0  0
   21.0753   17.3797   21.2428 H   0  0  0  0  0  0  0  0  0  0  0  0
   22.2068   18.4895   21.9879 H   0  0  0  0  0  0  0  0  0  0  0  0
   20.4783   18.0132   23.2242 C   0  0  0  0  0  0  0  0  0  0  0  0
   21.1009   18.4249   24.0291 H   0  0  0  0  0  0  0  0  0  0  0  0
   20.4842   16.9273   23.3895 H   0  0  0  0  0  0  0  0  0  0  0  0
   19.0240   18.5315   23.3788 C   0  0  0  0  0  0  0  0  0  0  0  0
   18.4213   18.1690   22.5367 H   0  0  0  0  0  0  0  0  0  0  0  0
   18.5816   18.0585   24.2659 H   0  0  0  0  0  0  0  0  0  0  0  0
   18.8611   20.0754   23.4968 C   0  0  0  0  0  0  0  0  0  0  0  0
   18.0432   20.3818   22.8288 H   0  0  0  0  0  0  0  0  0  0  0  0
   20.1133   20.9171   23.1449 C   0  0  0  0  0  0  0  0  0  0  0  0
   19.9123   21.9698   23.3827 H   0  0  0  0  0  0  0  0  0  0  0  0
   20.9460   20.6311   23.7987 H   0  0  0  0  0  0  0  0  0  0  0  0
   20.5691   20.8433   21.6662 C   0  0  0  0  0  0  0  0  0  0  0  0
   19.9506   21.5270   21.0690 H   0  0  0  0  0  0  0  0  0  0  0  0
   21.5956   21.2287   21.5986 H   0  0  0  0  0  0  0  0  0  0  0  0
   18.4993   20.3892   24.8368 O   0  0  0  0  0  0  0  0  0  0  0  0
   18.3474   21.3567   24.8694 H   0  0  0  0  0  0  0  0  0  0  0  0
  1  2  1  0  0  0  0
  1  3  1  0  0  0  0
  1  4  1  0  0  0  0
  4  5  1  0  0  0  0
  4  6  1  0  0  0  0
  4  7  1  0  0  0  0
  7  8  1  0  0  0  0
  7  9  1  0  0  0  0
  7 10  1  0  0  0  0
 10 11  1  0  0  0  0
 10 12  1  0  0  0  0
 10 13  1  0  0  0  0
 13 14  1  0  0  0  0
 13 15  1  0  0  0  0
 15 16  1  0  0  0  0
 15 17  1  0  0  0  0
  1 18  1  0  0  0  0
 15 18  1  0  0  0  0
 18 19  1  0  0  0  0
 18 20  1  0  0  0  0
 13 21  1  0  0  0  0
 21 22  1  0  0  0  0
M  END
> <VConfSearch Rank>
753

> <Conf_Id>
141

> <Delta U+W>
0.000

> <U+W>
6.423

> <U>
8.781

> <W>
-2.358

> <W(PB)>
-4.373

> <W(SA)>
2.015

> <Valence>
13.328

> <Coulomb>
-8.387

> <VdW>
3.840

> <VdW6>
-9.744

> <VdW12>
13.584

> <Bond>
0.436

> <Angle>
3.478

> <Pdih>
9.415

> <Idih>
0.000

> <Tether>
0.000

$$$$
VeraChem MOL file


 22 22  0  0  0  0  0  0  0  0999 V2000     
   19.9865   21.2905   22.1722 C   0  0  0  0  0  0  0  0  0  0  0  0
   19.7315   20.9712   21.1526 H   0  0  0  0  0  0  0  0  0  0  0  0
   20.0000   22.3888   22.1520 H   0  0  0  0  0  0  0  0  0  0  0  0
   21.4049   20.8106   22.5641 C   0  0  0  0  0  0  0  0  0  0  0  0
   22.1395   21.3593   21.9590 H   0  0  0  0  0  0  0  0  0  0  0  0
   21.6087   21.0901   23.6068 H   0  0  0  0  0  0  0  0  0  0  0  0
   21.6631   19.2973   22.3805 C   0  0  0  0  0  0  0  0  0  0  0  0
   22.6719   19.0743   22.7538 H   0  0  0  0  0  0  0  0  0  0  0  0
   21.6805   19.0575   21.3086 H   0  0  0  0  0  0  0  0  0  0  0  0
   20.6537   18.3696   23.1001 C   0  0  0  0  0  0  0  0  0  0  0  0
   21.0703   17.3538   23.0891 H   0  0  0  0  0  0  0  0  0  0  0  0
   20.5569   18.6486   24.1573 H   0  0  0  0  0  0  0  0  0  0  0  0
   19.2682   18.3511   22.4162 C   0  0  0  0  0  0  0  0  0  0  0  0
   19.4164   18.4838   21.3348 H   0  0  0  0  0  0  0  0  0  0  0  0
   18.2939   19.4447   22.9100 C   0  0  0  0  0  0  0  0  0  0  0  0
   17.4990   19.5436   22.1595 H   0  0  0  0  0  0  0  0  0  0  0  0
   17.7991   19.1026   23.8288 H   0  0  0  0  0  0  0  0  0  0  0  0
   18.9007   20.8445   23.1792 C   0  0  0  0  0  0  0  0  0  0  0  0
   18.0820   21.5770   23.1688 H   0  0  0  0  0  0  0  0  0  0  0  0
   19.3114   20.8772   24.1975 H   0  0  0  0  0  0  0  0  0  0  0  0
   18.6616   17.0848   22.6439 O   0  0  0  0  0  0  0  0  0  0  0  0
   19.2592   16.4117   22.2561 H   0  0  0  0  0  0  0  0  0  0  0  0
  1  2  1  0  0  0  0
  1  3  1  0  0  0  0
  1  4  1  0  0  0  0
  4  5  1  0  0  0  0
  4  6  1  0  0  0  0
  4  7  1  0  0  0  0
  7  8  1  0  0  0  0
  7  9  1  0  0  0  0
  7 10  1  0  0  0  0
 10 11  1  0  0  0  0
 10 12  1  0  0  0  0
 10 13  1  0  0  0  0
 13 14  1  0  0  0  0
 13 15  1  0  0  0  0
 15 16  1  0  0  0  0
 15 17  1  0  0  0  0
  1 18  1  0  0  0  0
 15 18  1  0  0  0  0
 18 19  1  0  0  0  0
 18 20  1  0  0  0  0
 13 21  1  0  0  0  0
 21 22  1  0  0  0  0
M  END
> <VConfSearch Rank>
754

> <Conf_Id>
144

> <Delta U+W>
-3.291

> <U+W>
3.132

> <U>
5.411

> <W>
-2.279

> <W(PB)>
-4.300

> <W(SA)>
2.021

> <Valence>
11.909

> <Coulomb>
-8.733

> <VdW>
2.236

> <VdW6>
-8.936

> <VdW12>
11.172

> <Bond>
0.223

> <Angle>
2.457

> <Pdih>
9.228

> <Idih>
0.000

> <Tether>
0.000

$$$$
VeraChem MOL file


 22 22  0  0  0  0  0  0  0  0999 V2000     
   19.9433   20.3425   21.1107 C   0  0  0  0  0  0  0  0  0  0  0  0
   20.1576   20.6448   20.0765 H   0  0  0  0  0  0  0  0  0  0  0  0
   19.1371   21.0022   21.4593 H   0  0  0  0  0  0  0  0  0  0  0  0
   21.2276   20.5527   21.9464 C   0  0  0  0  0  0  0  0  0  0  0  0
   21.8947   19.6899   21.8148 H   0  0  0  0  0  0  0  0  0  0  0  0
   21.7782   21.4129   21.5415 H   0  0  0  0  0  0  0  0  0  0  0  0
   20.9946   20.8036   23.4559 C   0  0  0  0  0  0  0  0  0  0  0  0
   20.7732   21.8684   23.6113 H   0  0  0  0  0  0  0  0  0  0  0  0
   21.9395   20.6155   23.9840 H   0  0  0  0  0  0  0  0  0  0  0  0
   19.8701   19.9749   24.1243 C   0  0  0  0  0  0  0  0  0  0  0  0
   20.0349   19.9994   25.2100 H   0  0  0  0  0  0  0  0  0  0  0  0
   18.9069   20.4744   23.9582 H   0  0  0  0  0  0  0  0  0  0  0  0
   19.7729   18.5073   23.6506 C   0  0  0  0  0  0  0  0  0  0  0  0
   20.7793   18.1245   23.4289 H   0  0  0  0  0  0  0  0  0  0  0  0
   18.8706   18.3449   22.4063 C   0  0  0  0  0  0  0  0  0  0  0  0
   18.6394   17.2791   22.2762 H   0  0  0  0  0  0  0  0  0  0  0  0
   17.9091   18.8443   22.5832 H   0  0  0  0  0  0  0  0  0  0  0  0
   19.4772   18.8670   21.0822 C   0  0  0  0  0  0  0  0  0  0  0  0
   20.3185   18.2243   20.7889 H   0  0  0  0  0  0  0  0  0  0  0  0
   18.7236   18.7529   20.2911 H   0  0  0  0  0  0  0  0  0  0  0  0
   19.2093   17.7348   24.7021 O   0  0  0  0  0  0  0  0  0  0  0  0
   18.3186   18.1055   24.8710 H   0  0  0  0  0  0  0  0  0  0  0  0
  1  2  1  0  0  0  0
  1  3  1  0  0  0  0
  1  4  1  0  0  0  0
  4  5  1  0  0  0  0
  4  6  1  0  0  0  0
  4  7  1  0  0  0  0
  7  8  1  0  0  0  0
  7  9  1  0  0  0  0
  7 10  1  0  0  0  0
 10 11  1  0  0  0  0
 10 12  1  0  0  0  0
 10 13  1  0  0  0  0
 13 14  1  0  0  0  0
 13 15  1  0  0  0  0
 15 16  1  0  0  0  0
 15 17  1  0  0  0  0
  1 18  1  0  0  0  0
 15 18  1  0  0  0  0
 18 19  1  0  0  0  0
 18 20  1  0  0  0  0
 13 21  1  0  0  0  0
 21 22  1  0  0  0  0
M  END
> <VConfSearch Rank>
755

> <Conf_Id>
76

> <Delta U+W>
-3.175

> <U+W>
3.248

> <U>
5.336

> <W>
-2.088

> <W(PB)>
-4.098

> <W(SA)>
2.010

> <Valence>
12.390

> <Coulomb>
-9.270

> <VdW>
2.216

> <VdW6>
-8.967

> <VdW12>
11.183

> <Bond>
0.218

> <Angle>
2.426

> <Pdih>
9.745

> <Idih>
0.000

> <Tether>
0.000

$$$$
VeraChem MOL file


 22 22  0  0  0  0  0  0  0  0999 V2000     
   21.5460   18.4050   22.6078 C   0  0  0  0  0  0  0  0  0  0  0  0
   22.0803   17.9502   23.4530 H   0  0  0  0  0  0  0  0  0  0  0  0
   22.0030   17.9809   21.7033 H   0  0  0  0  0  0  0  0  0  0  0  0
   21.8076   19.9300   22.6339 C   0  0  0  0  0  0  0  0  0  0  0  0
   21.8471   20.2774   23.6752 H   0  0  0  0  0  0  0  0  0  0  0  0
   22.8120   20.1091   22.2265 H   0  0  0  0  0  0  0  0  0  0  0  0
   20.7864   20.7827   21.8456 C   0  0  0  0  0  0  0  0  0  0  0  0
   20.4722   20.2701   20.9261 H   0  0  0  0  0  0  0  0  0  0  0  0
   21.2884   21.7050   21.5238 H   0  0  0  0  0  0  0  0  0  0  0  0
   19.5572   21.1874   22.6984 C   0  0  0  0  0  0  0  0  0  0  0  0
   19.9024   21.6309   23.6411 H   0  0  0  0  0  0  0  0  0  0  0  0
   19.0170   21.9880   22.1764 H   0  0  0  0  0  0  0  0  0  0  0  0
   18.5475   20.0617   23.0185 C   0  0  0  0  0  0  0  0  0  0  0  0
   17.8505   20.4646   23.7675 H   0  0  0  0  0  0  0  0  0  0  0  0
   19.1649   18.7730   23.6171 C   0  0  0  0  0  0  0  0  0  0  0  0
   19.7220   19.0171   24.5309 H   0  0  0  0  0  0  0  0  0  0  0  0
   18.3371   18.1279   23.9388 H   0  0  0  0  0  0  0  0  0  0  0  0
   20.0642   17.9616   22.6486 C   0  0  0  0  0  0  0  0  0  0  0  0
   20.0369   16.9038   22.9433 H   0  0  0  0  0  0  0  0  0  0  0  0
   19.6472   17.9912   21.6333 H   0  0  0  0  0  0  0  0  0  0  0  0
   17.8047   19.7491   21.8444 O   0  0  0  0  0  0  0  0  0  0  0  0
   17.2176   19.0010   22.0767 H   0  0  0  0  0  0  0  0  0  0  0  0
  1  2  1  0  0  0  0
  1  3  1  0  0  0  0
  1  4  1  0  0  0  0
  4  5  1  0  0  0  0
  4  6  1  0  0  0  0
  4  7  1  0  0  0  0
  7  8  1  0  0  0  0
  7  9  1  0  0  0  0
  7 10  1  0  0  0  0
 10 11  1  0  0  0  0
 10 12  1  0  0  0  0
 10 13  1  0  0  0  0
 13 14  1  0  0  0  0
 13 15  1  0  0  0  0
 15 16  1  0  0  0  0
 15 17  1  0  0  0  0
  1 18  1  0  0  0  0
 15 18  1  0  0  0  0
 18 19  1  0  0  0  0
 18 20  1  0  0  0  0
 13 21  1  0  0  0  0
 21 22  1  0  0  0  0
M  END
> <VConfSearch Rank>
756

> <Conf_Id>
95

> <Delta U+W>
-2.289

> <U+W>
4.134

> <U>
6.373

> <W>
-2.240

> <W(PB)>
-4.254

> <W(SA)>
2.015

> <Valence>
12.093

> <Coulomb>
-8.058

> <VdW>
2.339

> <VdW6>
-9.683

> <VdW12>
12.022

> <Bond>
0.268

> <Angle>
3.005

> <Pdih>
8.820

> <Idih>
0.000

> <Tether>
0.000

$$$$
VeraChem MOL file


 22 22  0  0  0  0  0  0  0  0999 V2000     
   18.5974   20.4364   23.6586 C   0  0  0  0  0  0  0  0  0  0  0  0
   17.9828   21.2941   23.3529 H   0  0  0  0  0  0  0  0  0  0  0  0
   18.1844   20.1016   24.6199 H   0  0  0  0  0  0  0  0  0  0  0  0
   20.0456   20.9337   23.8815 C   0  0  0  0  0  0  0  0  0  0  0  0
   20.2827   21.7123   23.1439 H   0  0  0  0  0  0  0  0  0  0  0  0
   20.0861   21.4335   24.8589 H   0  0  0  0  0  0  0  0  0  0  0  0
   21.1309   19.8330   23.8351 C   0  0  0  0  0  0  0  0  0  0  0  0
   20.7687   18.9039   24.2959 H   0  0  0  0  0  0  0  0  0  0  0  0
   21.9798   20.1662   24.4473 H   0  0  0  0  0  0  0  0  0  0  0  0
   21.6565   19.5722   22.4009 C   0  0  0  0  0  0  0  0  0  0  0  0
   21.9294   20.5299   21.9389 H   0  0  0  0  0  0  0  0  0  0  0  0
   22.5935   19.0043   22.4683 H   0  0  0  0  0  0  0  0  0  0  0  0
   20.6982   18.8195   21.4496 C   0  0  0  0  0  0  0  0  0  0  0  0
   21.1416   18.8726   20.4448 H   0  0  0  0  0  0  0  0  0  0  0  0
   19.2710   19.4138   21.3482 C   0  0  0  0  0  0  0  0  0  0  0  0
   19.3237   20.4622   21.0279 H   0  0  0  0  0  0  0  0  0  0  0  0
   18.7539   18.8793   20.5409 H   0  0  0  0  0  0  0  0  0  0  0  0
   18.4127   19.2915   22.6342 C   0  0  0  0  0  0  0  0  0  0  0  0
   17.3525   19.2619   22.3489 H   0  0  0  0  0  0  0  0  0  0  0  0
   18.6081   18.3279   23.1230 H   0  0  0  0  0  0  0  0  0  0  0  0
   20.6317   17.4494   21.8333 O   0  0  0  0  0  0  0  0  0  0  0  0
   21.5548   17.1303   21.8987 H   0  0  0  0  0  0  0  0  0  0  0  0
  1  2  1  0  0  0  0
  1  3  1  0  0  0  0
  1  4  1  0  0  0  0
  4  5  1  0  0  0  0
  4  6  1  0  0  0  0
  4  7  1  0  0  0  0
  7  8  1  0  0  0  0
  7  9  1  0  0  0  0
  7 10  1  0  0  0  0
 10 11  1  0  0  0  0
 10 12  1  0  0  0  0
 10 13  1  0  0  0  0
 13 14  1  0  0  0  0
 13 15  1  0  0  0  0
 15 16  1  0  0  0  0
 15 17  1  0  0  0  0
  1 18  1  0  0  0  0
 15 18  1  0  0  0  0
 18 19  1  0  0  0  0
 18 20  1  0  0  0  0
 13 21  1  0  0  0  0
 21 22  1  0  0  0  0
M  END
> <VConfSearch Rank>
757

> <Conf_Id>
41

> <Delta U+W>
-2.114

> <U+W>
4.310

> <U>
6.598

> <W>
-2.289

> <W(PB)>
-4.294

> <W(SA)>
2.005

> <Valence>
12.082

> <Coulomb>
-7.801

> <VdW>
2.317

> <VdW6>
-9.658

> <VdW12>
11.975

> <Bond>
0.267

> <Angle>
3.051

> <Pdih>
8.764

> <Idih>
0.000

> <Tether>
0.000

$$$$
VeraChem MOL file


 22 22  0  0  0  0  0  0  0  0999 V2000     
   21.7101   19.8989   22.8007 C   0  0  0  0  0  0  0  0  0  0  0  0
   22.7583   20.0379   23.0982 H   0  0  0  0  0  0  0  0  0  0  0  0
   21.6937   19.9383   21.7028 H   0  0  0  0  0  0  0  0  0  0  0  0
   20.8889   21.0617   23.4015 C   0  0  0  0  0  0  0  0  0  0  0  0
   20.8661   20.9685   24.4958 H   0  0  0  0  0  0  0  0  0  0  0  0
   21.4103   22.0051   23.1905 H   0  0  0  0  0  0  0  0  0  0  0  0
   19.4456   21.1761   22.8640 C   0  0  0  0  0  0  0  0  0  0  0  0
   19.4716   21.4799   21.8090 H   0  0  0  0  0  0  0  0  0  0  0  0
   18.9511   22.0005   23.3951 H   0  0  0  0  0  0  0  0  0  0  0  0
   18.5772   19.8993   23.0277 C   0  0  0  0  0  0  0  0  0  0  0  0
   18.6132   19.5501   24.0674 H   0  0  0  0  0  0  0  0  0  0  0  0
   17.5325   20.1827   22.8463 H   0  0  0  0  0  0  0  0  0  0  0  0
   18.9056   18.7272   22.0673 C   0  0  0  0  0  0  0  0  0  0  0  0
   18.0353   18.0551   22.0810 H   0  0  0  0  0  0  0  0  0  0  0  0
   20.1288   17.8564   22.4557 C   0  0  0  0  0  0  0  0  0  0  0  0
   19.7609   16.9849   23.0127 H   0  0  0  0  0  0  0  0  0  0  0  0
   20.5796   17.4454   21.5429 H   0  0  0  0  0  0  0  0  0  0  0  0
   21.2435   18.5155   23.3053 C   0  0  0  0  0  0  0  0  0  0  0  0
   20.9192   18.5916   24.3519 H   0  0  0  0  0  0  0  0  0  0  0  0
   22.1060   17.8354   23.3132 H   0  0  0  0  0  0  0  0  0  0  0  0
   19.0607   19.2043   20.7335 O   0  0  0  0  0  0  0  0  0  0  0  0
   19.2255   18.4210   20.1703 H   0  0  0  0  0  0  0  0  0  0  0  0
  1  2  1  0  0  0  0
  1  3  1  0  0  0  0
  1  4  1  0  0  0  0
  4  5  1  0  0  0  0
  4  6  1  0  0  0  0
  4  7  1  0  0  0  0
  7  8  1  0  0  0  0
  7  9  1  0  0  0  0
  7 10  1  0  0  0  0
 10 11  1  0  0  0  0
 10 12  1  0  0  0  0
 10 13  1  0  0  0  0
 13 14  1  0  0  0  0
 13 15  1  0  0  0  0
 15 16  1  0  0  0  0
 15 17  1  0  0  0  0
  1 18  1  0  0  0  0
 15 18  1  0  0  0  0
 18 19  1  0  0  0  0
 18 20  1  0  0  0  0
 13 21  1  0  0  0  0
 21 22  1  0  0  0  0
M  END
> <VConfSearch Rank>
758

> <Conf_Id>
104

> <Delta U+W>
-1.172

> <U+W>
5.252

> <U>
7.482

> <W>
-2.230

> <W(PB)>
-4.220

> <W(SA)>
1.990

> <Valence>
12.309

> <Coulomb>
-7.084

> <VdW>
2.258

> <VdW6>
-9.770

> <VdW12>
12.028

> <Bond>
0.284

> <Angle>
3.491

> <Pdih>
8.535

> <Idih>
0.000

> <Tether>
0.000

$$$$
VeraChem MOL file


 22 22  0  0  0  0  0  0  0  0999 V2000     
   19.9741   19.6748   21.0287 C   0  0  0  0  0  0  0  0  0  0  0  0
   19.5439   18.6684   20.9352 H   0  0  0  0  0  0  0  0  0  0  0  0
   20.0826   20.0535   20.0032 H   0  0  0  0  0  0  0  0  0  0  0  0
   21.3828   19.6164   21.6626 C   0  0  0  0  0  0  0  0  0  0  0  0
   22.1036   19.3210   20.8877 H   0  0  0  0  0  0  0  0  0  0  0  0
   21.6881   20.6270   21.9639 H   0  0  0  0  0  0  0  0  0  0  0  0
   21.5431   18.6381   22.8537 C   0  0  0  0  0  0  0  0  0  0  0  0
   22.3735   18.9886   23.4823 H   0  0  0  0  0  0  0  0  0  0  0  0
   21.8658   17.6637   22.4620 H   0  0  0  0  0  0  0  0  0  0  0  0
   20.2964   18.3936   23.7465 C   0  0  0  0  0  0  0  0  0  0  0  0
   19.6257   17.6871   23.2405 H   0  0  0  0  0  0  0  0  0  0  0  0
   20.6272   17.8751   24.6558 H   0  0  0  0  0  0  0  0  0  0  0  0
   19.4799   19.6356   24.1718 C   0  0  0  0  0  0  0  0  0  0  0  0
   18.9146   19.3620   25.0742 H   0  0  0  0  0  0  0  0  0  0  0  0
   18.4438   20.0655   23.1088 C   0  0  0  0  0  0  0  0  0  0  0  0
   17.7914   19.2106   22.8879 H   0  0  0  0  0  0  0  0  0  0  0  0
   17.7915   20.8272   23.5554 H   0  0  0  0  0  0  0  0  0  0  0  0
   19.0083   20.6229   21.7786 C   0  0  0  0  0  0  0  0  0  0  0  0
   18.1583   20.8421   21.1182 H   0  0  0  0  0  0  0  0  0  0  0  0
   19.4991   21.5890   21.9582 H   0  0  0  0  0  0  0  0  0  0  0  0
   20.3438   20.7188   24.4792 O   0  0  0  0  0  0  0  0  0  0  0  0
   20.8660   20.8467   23.6624 H   0  0  0  0  0  0  0  0  0  0  0  0
  1  2  1  0  0  0  0
  1  3  1  0  0  0  0
  1  4  1  0  0  0  0
  4  5  1  0  0  0  0
  4  6  1  0  0  0  0
  4  7  1  0  0  0  0
  7  8  1  0  0  0  0
  7  9  1  0  0  0  0
  7 10  1  0  0  0  0
 10 11  1  0  0  0  0
 10 12  1  0  0  0  0
 10 13  1  0  0  0  0
 13 14  1  0  0  0  0
 13 15  1  0  0  0  0
 15 16  1  0  0  0  0
 15 17  1  0  0  0  0
  1 18  1  0  0  0  0
 15 18  1  0  0  0  0
 18 19  1  0  0  0  0
 18 20  1  0  0  0  0
 13 21  1  0  0  0  0
 21 22  1  0  0  0  0
M  END
> <VConfSearch Rank>
759

> <Conf_Id>
99

> <Delta U+W>
-3.852

> <U+W>
2.572

> <U>
3.922

> <W>
-1.350

> <W(PB)>
-3.345

> <W(SA)>
1.995

> <Valence>
12.571

> <Coulomb>
-10.581

> <VdW>
1.932

> <VdW6>
-10.483

> <VdW12>
12.415

> <Bond>
0.268

> <Angle>
3.728

> <Pdih>
8.575

> <Idih>
0.000

> <Tether>
0.000

$$$$
VeraChem MOL file


 22 22  0  0  0  0  0  0  0  0999 V2000     
   19.6743   19.6318   21.0591 C   0  0  0  0  0  0  0  0  0  0  0  0
   18.9441   19.5716   20.2403 H   0  0  0  0  0  0  0  0  0  0  0  0
   20.6348   19.8359   20.5673 H   0  0  0  0  0  0  0  0  0  0  0  0
   19.7167   18.2443   21.7640 C   0  0  0  0  0  0  0  0  0  0  0  0
   19.0049   17.5835   21.2502 H   0  0  0  0  0  0  0  0  0  0  0  0
   20.6978   17.7740   21.6150 H   0  0  0  0  0  0  0  0  0  0  0  0
   19.3621   18.2382   23.2729 C   0  0  0  0  0  0  0  0  0  0  0  0
   19.2394   17.1954   23.5957 H   0  0  0  0  0  0  0  0  0  0  0  0
   18.3742   18.6912   23.4230 H   0  0  0  0  0  0  0  0  0  0  0  0
   20.3962   18.9099   24.2185 C   0  0  0  0  0  0  0  0  0  0  0  0
   19.8809   19.1910   25.1460 H   0  0  0  0  0  0  0  0  0  0  0  0
   21.1363   18.1548   24.5154 H   0  0  0  0  0  0  0  0  0  0  0  0
   21.1727   20.1436   23.6960 C   0  0  0  0  0  0  0  0  0  0  0  0
   21.6690   20.6000   24.5644 H   0  0  0  0  0  0  0  0  0  0  0  0
   20.3250   21.2540   23.0275 C   0  0  0  0  0  0  0  0  0  0  0  0
   19.8015   21.8123   23.8142 H   0  0  0  0  0  0  0  0  0  0  0  0
   21.0202   21.9735   22.5748 H   0  0  0  0  0  0  0  0  0  0  0  0
   19.2829   20.8360   21.9532 C   0  0  0  0  0  0  0  0  0  0  0  0
   18.3148   20.6427   22.4318 H   0  0  0  0  0  0  0  0  0  0  0  0
   19.1018   21.7043   21.3051 H   0  0  0  0  0  0  0  0  0  0  0  0
   22.1927   19.7217   22.8045 O   0  0  0  0  0  0  0  0  0  0  0  0
   21.7034   19.3263   22.0554 H   0  0  0  0  0  0  0  0  0  0  0  0
  1  2  1  0  0  0  0
  1  3  1  0  0  0  0
  1  4  1  0  0  0  0
  4  5  1  0  0  0  0
  4  6  1  0  0  0  0
  4  7  1  0  0  0  0
  7  8  1  0  0  0  0
  7  9  1  0  0  0  0
  7 10  1  0  0  0  0
 10 11  1  0  0  0  0
 10 12  1  0  0  0  0
 10 13  1  0  0  0  0
 13 14  1  0  0  0  0
 13 15  1  0  0  0  0
 15 16  1  0  0  0  0
 15 17  1  0  0  0  0
  1 18  1  0  0  0  0
 15 18  1  0  0  0  0
 18 19  1  0  0  0  0
 18 20  1  0  0  0  0
 13 21  1  0  0  0  0
 21 22  1  0  0  0  0
M  END
> <VConfSearch Rank>
760

> <Conf_Id>
98

> <Delta U+W>
0.930

> <U+W>
7.353

> <U>
8.455

> <W>
-1.102

> <W(PB)>
-3.101

> <W(SA)>
2.000

> <Valence>
15.601

> <Coulomb>
-10.573

> <VdW>
3.427

> <VdW6>
-11.360

> <VdW12>
14.787

> <Bond>
0.471

> <Angle>
5.445

> <Pdih>
9.685

> <Idih>
0.000

> <Tether>
0.000

$$$$
VeraChem MOL file


 22 22  0  0  0  0  0  0  0  0999 V2000     
   21.6552   19.1840   23.0345 C   0  0  0  0  0  0  0  0  0  0  0  0
   21.6708   18.5445   22.1426 H   0  0  0  0  0  0  0  0  0  0  0  0
   22.6797   19.1480   23.4292 H   0  0  0  0  0  0  0  0  0  0  0  0
   20.6970   18.5824   24.0938 C   0  0  0  0  0  0  0  0  0  0  0  0
   21.0623   17.5750   24.3358 H   0  0  0  0  0  0  0  0  0  0  0  0
   20.7719   19.1579   25.0265 H   0  0  0  0  0  0  0  0  0  0  0  0
   19.2028   18.4689   23.6825 C   0  0  0  0  0  0  0  0  0  0  0  0
   18.6189   19.2649   24.1625 H   0  0  0  0  0  0  0  0  0  0  0  0
   18.8029   17.5345   24.0991 H   0  0  0  0  0  0  0  0  0  0  0  0
   18.9393   18.4843   22.1534 C   0  0  0  0  0  0  0  0  0  0  0  0
   19.5730   17.7296   21.6714 H   0  0  0  0  0  0  0  0  0  0  0  0
   17.9105   18.1422   21.9773 H   0  0  0  0  0  0  0  0  0  0  0  0
   19.1437   19.8538   21.4418 C   0  0  0  0  0  0  0  0  0  0  0  0
   19.7250   19.6761   20.5255 H   0  0  0  0  0  0  0  0  0  0  0  0
   19.8680   20.9453   22.2692 C   0  0  0  0  0  0  0  0  0  0  0  0
   19.8418   21.8902   21.7111 H   0  0  0  0  0  0  0  0  0  0  0  0
   19.3072   21.1427   23.1907 H   0  0  0  0  0  0  0  0  0  0  0  0
   21.3462   20.6417   22.6193 C   0  0  0  0  0  0  0  0  0  0  0  0
   21.9749   20.8909   21.7536 H   0  0  0  0  0  0  0  0  0  0  0  0
   21.6596   21.3199   23.4246 H   0  0  0  0  0  0  0  0  0  0  0  0
   17.8672   20.3692   21.0810 O   0  0  0  0  0  0  0  0  0  0  0  0
   18.0273   21.1996   20.5860 H   0  0  0  0  0  0  0  0  0  0  0  0
  1  2  1  0  0  0  0
  1  3  1  0  0  0  0
  1  4  1  0  0  0  0
  4  5  1  0  0  0  0
  4  6  1  0  0  0  0
  4  7  1  0  0  0  0
  7  8  1  0  0  0  0
  7  9  1  0  0  0  0
  7 10  1  0  0  0  0
 10 11  1  0  0  0  0
 10 12  1  0  0  0  0
 10 13  1  0  0  0  0
 13 14  1  0  0  0  0
 13 15  1  0  0  0  0
 15 16  1  0  0  0  0
 15 17  1  0  0  0  0
  1 18  1  0  0  0  0
 15 18  1  0  0  0  0
 18 19  1  0  0  0  0
 18 20  1  0  0  0  0
 13 21  1  0  0  0  0
 21 22  1  0  0  0  0
M  END
> <VConfSearch Rank>
761

> <Conf_Id>
141

> <Delta U+W>
0.000

> <U+W>
6.423

> <U>
8.781

> <W>
-2.358

> <W(PB)>
-4.373

> <W(SA)>
2.015

> <Valence>
13.328

> <Coulomb>
-8.387

> <VdW>
3.840

> <VdW6>
-9.744

> <VdW12>
13.584

> <Bond>
0.436

> <Angle>
3.478

> <Pdih>
9.415

> <Idih>
0.000

> <Tether>
0.000

$$$$
VeraChem MOL file


 22 22  0  0  0  0  0  0  0  0999 V2000     
   19.5258   18.6278   21.2866 C   0  0  0  0  0  0  0  0  0  0  0  0
   19.9665   19.3865   20.6257 H   0  0  0  0  0  0  0  0  0  0  0  0
   19.1845   17.8151   20.6309 H   0  0  0  0  0  0  0  0  0  0  0  0
   18.2858   19.1887   22.0238 C   0  0  0  0  0  0  0  0  0  0  0  0
   17.4849   19.3491   21.2892 H   0  0  0  0  0  0  0  0  0  0  0  0
   17.9034   18.4311   22.7215 H   0  0  0  0  0  0  0  0  0  0  0  0
   18.5150   20.5150   22.7845 C   0  0  0  0  0  0  0  0  0  0  0  0
   17.5879   20.7695   23.3160 H   0  0  0  0  0  0  0  0  0  0  0  0
   18.6786   21.3264   22.0621 H   0  0  0  0  0  0  0  0  0  0  0  0
   19.6791   20.4909   23.8052 C   0  0  0  0  0  0  0  0  0  0  0  0
   19.5909   21.3890   24.4305 H   0  0  0  0  0  0  0  0  0  0  0  0
   19.5804   19.6346   24.4849 H   0  0  0  0  0  0  0  0  0  0  0  0
   21.0673   20.4862   23.1267 C   0  0  0  0  0  0  0  0  0  0  0  0
   20.9957   21.0614   22.1924 H   0  0  0  0  0  0  0  0  0  0  0  0
   21.6123   19.0796   22.7895 C   0  0  0  0  0  0  0  0  0  0  0  0
   22.4119   19.2032   22.0477 H   0  0  0  0  0  0  0  0  0  0  0  0
   22.0920   18.6526   23.6804 H   0  0  0  0  0  0  0  0  0  0  0  0
   20.5884   18.0496   22.2503 C   0  0  0  0  0  0  0  0  0  0  0  0
   21.1452   17.2564   21.7330 H   0  0  0  0  0  0  0  0  0  0  0  0
   20.0865   17.5547   23.0929 H   0  0  0  0  0  0  0  0  0  0  0  0
   22.0009   21.1257   23.9885 O   0  0  0  0  0  0  0  0  0  0  0  0
   21.6758   22.0397   24.1283 H   0  0  0  0  0  0  0  0  0  0  0  0
  1  2  1  0  0  0  0
  1  3  1  0  0  0  0
  1  4  1  0  0  0  0
  4  5  1  0  0  0  0
  4  6  1  0  0  0  0
  4  7  1  0  0  0  0
  7  8  1  0  0  0  0
  7  9  1  0  0  0  0
  7 10  1  0  0  0  0
 10 11  1  0  0  0  0
 10 12  1  0  0  0  0
 10 13  1  0  0  0  0
 13 14  1  0  0  0  0
 13 15  1  0  0  0  0
 15 16  1  0  0  0  0
 15 17  1  0  0  0  0
  1 18  1  0  0  0  0
 15 18  1  0  0  0  0
 18 19  1  0  0  0  0
 18 20  1  0  0  0  0
 13 21  1  0  0  0  0
 21 22  1  0  0  0  0
M  END
> <VConfSearch Rank>
762

> <Conf_Id>
144

> <Delta U+W>
-3.291

> <U+W>
3.132

> <U>
5.411

> <W>
-2.279

> <W(PB)>
-4.300

> <W(SA)>
2.021

> <Valence>
11.909

> <Coulomb>
-8.733

> <VdW>
2.236

> <VdW6>
-8.936

> <VdW12>
11.172

> <Bond>
0.223

> <Angle>
2.457

> <Pdih>
9.228

> <Idih>
0.000

> <Tether>
0.000

$$$$
VeraChem MOL file


 22 22  0  0  0  0  0  0  0  0999 V2000     
   20.6921   19.0135   21.1884 C   0  0  0  0  0  0  0  0  0  0  0  0
   21.2103   18.4255   20.4185 H   0  0  0  0  0  0  0  0  0  0  0  0
   20.4540   19.9799   20.7236 H   0  0  0  0  0  0  0  0  0  0  0  0
   21.6596   19.1987   22.3807 C   0  0  0  0  0  0  0  0  0  0  0  0
   21.6287   18.3051   23.0188 H   0  0  0  0  0  0  0  0  0  0  0  0
   22.6884   19.2504   21.9988 H   0  0  0  0  0  0  0  0  0  0  0  0
   21.4068   20.4603   23.2412 C   0  0  0  0  0  0  0  0  0  0  0  0
   21.8982   21.3208   22.7669 H   0  0  0  0  0  0  0  0  0  0  0  0
   21.9127   20.3231   24.2067 H   0  0  0  0  0  0  0  0  0  0  0  0
   19.9253   20.8317   23.4968 C   0  0  0  0  0  0  0  0  0  0  0  0
   19.8932   21.5098   24.3602 H   0  0  0  0  0  0  0  0  0  0  0  0
   19.5479   21.4144   22.6465 H   0  0  0  0  0  0  0  0  0  0  0  0
   18.9868   19.6305   23.7495 C   0  0  0  0  0  0  0  0  0  0  0  0
   19.5327   18.8440   24.2899 H   0  0  0  0  0  0  0  0  0  0  0  0
   18.4014   19.0505   22.4418 C   0  0  0  0  0  0  0  0  0  0  0  0
   17.5654   18.3850   22.6956 H   0  0  0  0  0  0  0  0  0  0  0  0
   17.9712   19.8625   21.8413 H   0  0  0  0  0  0  0  0  0  0  0  0
   19.4010   18.2514   21.5723 C   0  0  0  0  0  0  0  0  0  0  0  0
   19.6676   17.3188   22.0882 H   0  0  0  0  0  0  0  0  0  0  0  0
   18.8868   17.9469   20.6506 H   0  0  0  0  0  0  0  0  0  0  0  0
   17.9021   20.0725   24.5546 O   0  0  0  0  0  0  0  0  0  0  0  0
   17.4439   20.7703   24.0425 H   0  0  0  0  0  0  0  0  0  0  0  0
  1  2  1  0  0  0  0
  1  3  1  0  0  0  0
  1  4  1  0  0  0  0
  4  5  1  0  0  0  0
  4  6  1  0  0  0  0
  4  7  1  0  0  0  0
  7  8  1  0  0  0  0
  7  9  1  0  0  0  0
  7 10  1  0  0  0  0
 10 11  1  0  0  0  0
 10 12  1  0  0  0  0
 10 13  1  0  0  0  0
 13 14  1  0  0  0  0
 13 15  1  0  0  0  0
 15 16  1  0  0  0  0
 15 17  1  0  0  0  0
  1 18  1  0  0  0  0
 15 18  1  0  0  0  0
 18 19  1  0  0  0  0
 18 20  1  0  0  0  0
 13 21  1  0  0  0  0
 21 22  1  0  0  0  0
M  END
> <VConfSearch Rank>
763

> <Conf_Id>
76

> <Delta U+W>
-3.175

> <U+W>
3.248

> <U>
5.336

> <W>
-2.088

> <W(PB)>
-4.098

> <W(SA)>
2.010

> <Valence>
12.390

> <Coulomb>
-9.270

> <VdW>
2.216

> <VdW6>
-8.967

> <VdW12>
11.183

> <Bond>
0.218

> <Angle>
2.426

> <Pdih>
9.745

> <Idih>
0.000

> <Tether>
0.000

$$$$
VeraChem MOL file


 22 22  0  0  0  0  0  0  0  0999 V2000     
   20.8562   20.3759   24.1802 C   0  0  0  0  0  0  0  0  0  0  0  0
   21.6807   19.9870   24.7932 H   0  0  0  0  0  0  0  0  0  0  0  0
   20.6423   21.3801   24.5708 H   0  0  0  0  0  0  0  0  0  0  0  0
   19.6182   19.4755   24.4069 C   0  0  0  0  0  0  0  0  0  0  0  0
   19.9403   18.4320   24.5241 H   0  0  0  0  0  0  0  0  0  0  0  0
   19.1680   19.7537   25.3696 H   0  0  0  0  0  0  0  0  0  0  0  0
   18.5373   19.5595   23.3041 C   0  0  0  0  0  0  0  0  0  0  0  0
   18.4385   20.5867   22.9272 H   0  0  0  0  0  0  0  0  0  0  0  0
   17.5688   19.3063   23.7558 H   0  0  0  0  0  0  0  0  0  0  0  0
   18.7891   18.5673   22.1404 C   0  0  0  0  0  0  0  0  0  0  0  0
   18.9552   17.5635   22.5518 H   0  0  0  0  0  0  0  0  0  0  0  0
   17.8729   18.4919   21.5400 H   0  0  0  0  0  0  0  0  0  0  0  0
   19.9557   18.9140   21.1875 C   0  0  0  0  0  0  0  0  0  0  0  0
   20.1124   18.0351   20.5455 H   0  0  0  0  0  0  0  0  0  0  0  0
   21.3067   19.2174   21.8826 C   0  0  0  0  0  0  0  0  0  0  0  0
   21.6032   18.3650   22.5075 H   0  0  0  0  0  0  0  0  0  0  0  0
   22.0726   19.2909   21.0998 H   0  0  0  0  0  0  0  0  0  0  0  0
   21.3394   20.5238   22.7178 C   0  0  0  0  0  0  0  0  0  0  0  0
   22.3698   20.9034   22.7400 H   0  0  0  0  0  0  0  0  0  0  0  0
   20.7525   21.3054   22.2177 H   0  0  0  0  0  0  0  0  0  0  0  0
   19.5756   20.0072   20.3578 O   0  0  0  0  0  0  0  0  0  0  0  0
   20.3567   20.2261   19.8098 H   0  0  0  0  0  0  0  0  0  0  0  0
  1  2  1  0  0  0  0
  1  3  1  0  0  0  0
  1  4  1  0  0  0  0
  4  5  1  0  0  0  0
  4  6  1  0  0  0  0
  4  7  1  0  0  0  0
  7  8  1  0  0  0  0
  7  9  1  0  0  0  0
  7 10  1  0  0  0  0
 10 11  1  0  0  0  0
 10 12  1  0  0  0  0
 10 13  1  0  0  0  0
 13 14  1  0  0  0  0
 13 15  1  0  0  0  0
 15 16  1  0  0  0  0
 15 17  1  0  0  0  0
  1 18  1  0  0  0  0
 15 18  1  0  0  0  0
 18 19  1  0  0  0  0
 18 20  1  0  0  0  0
 13 21  1  0  0  0  0
 21 22  1  0  0  0  0
M  END
> <VConfSearch Rank>
764

> <Conf_Id>
95

> <Delta U+W>
-2.289

> <U+W>
4.134

> <U>
6.373

> <W>
-2.240

> <W(PB)>
-4.254

> <W(SA)>
2.015

> <Valence>
12.093

> <Coulomb>
-8.058

> <VdW>
2.339

> <VdW6>
-9.683

> <VdW12>
12.022

> <Bond>
0.268

> <Angle>
3.005

> <Pdih>
8.820

> <Idih>
0.000

> <Tether>
0.000

$$$$
VeraChem MOL file


 22 22  0  0  0  0  0  0  0  0999 V2000     
   19.7965   21.4999   22.4070 C   0  0  0  0  0  0  0  0  0  0  0  0
   19.6376   22.2888   23.1547 H   0  0  0  0  0  0  0  0  0  0  0  0
   19.8247   22.0117   21.4353 H   0  0  0  0  0  0  0  0  0  0  0  0
   18.5750   20.5506   22.4379 C   0  0  0  0  0  0  0  0  0  0  0  0
   18.2185   20.4466   23.4716 H   0  0  0  0  0  0  0  0  0  0  0  0
   17.7544   21.0358   21.8920 H   0  0  0  0  0  0  0  0  0  0  0  0
   18.8195   19.1480   21.8340 C   0  0  0  0  0  0  0  0  0  0  0  0
   19.4747   19.2075   20.9542 H   0  0  0  0  0  0  0  0  0  0  0  0
   17.8574   18.7609   21.4721 H   0  0  0  0  0  0  0  0  0  0  0  0
   19.3744   18.1394   22.8713 C   0  0  0  0  0  0  0  0  0  0  0  0
   18.7462   18.1676   23.7710 H   0  0  0  0  0  0  0  0  0  0  0  0
   19.2611   17.1243   22.4691 H   0  0  0  0  0  0  0  0  0  0  0  0
   20.8491   18.3350   23.2916 C   0  0  0  0  0  0  0  0  0  0  0  0
   21.0279   17.6643   24.1444 H   0  0  0  0  0  0  0  0  0  0  0  0
   21.2166   19.7669   23.7551 C   0  0  0  0  0  0  0  0  0  0  0  0
   20.5752   20.0653   24.5942 H   0  0  0  0  0  0  0  0  0  0  0  0
   22.2369   19.7256   24.1576 H   0  0  0  0  0  0  0  0  0  0  0  0
   21.1802   20.8493   22.6449 C   0  0  0  0  0  0  0  0  0  0  0  0
   21.8876   21.6474   22.9072 H   0  0  0  0  0  0  0  0  0  0  0  0
   21.5541   20.4293   21.7018 H   0  0  0  0  0  0  0  0  0  0  0  0
   21.7018   17.9322   22.2241 O   0  0  0  0  0  0  0  0  0  0  0  0
   21.4170   17.0336   21.9602 H   0  0  0  0  0  0  0  0  0  0  0  0
  1  2  1  0  0  0  0
  1  3  1  0  0  0  0
  1  4  1  0  0  0  0
  4  5  1  0  0  0  0
  4  6  1  0  0  0  0
  4  7  1  0  0  0  0
  7  8  1  0  0  0  0
  7  9  1  0  0  0  0
  7 10  1  0  0  0  0
 10 11  1  0  0  0  0
 10 12  1  0  0  0  0
 10 13  1  0  0  0  0
 13 14  1  0  0  0  0
 13 15  1  0  0  0  0
 15 16  1  0  0  0  0
 15 17  1  0  0  0  0
  1 18  1  0  0  0  0
 15 18  1  0  0  0  0
 18 19  1  0  0  0  0
 18 20  1  0  0  0  0
 13 21  1  0  0  0  0
 21 22  1  0  0  0  0
M  END
> <VConfSearch Rank>
765

> <Conf_Id>
41

> <Delta U+W>
-2.114

> <U+W>
4.310

> <U>
6.598

> <W>
-2.289

> <W(PB)>
-4.294

> <W(SA)>
2.005

> <Valence>
12.082

> <Coulomb>
-7.801

> <VdW>
2.317

> <VdW6>
-9.658

> <VdW12>
11.975

> <Bond>
0.267

> <Angle>
3.051

> <Pdih>
8.764

> <Idih>
0.000

> <Tether>
0.000

$$$$
VeraChem MOL file


 22 22  0  0  0  0  0  0  0  0999 V2000     
   20.9562   19.9872   24.0630 C   0  0  0  0  0  0  0  0  0  0  0  0
   21.4558   20.5240   24.8808 H   0  0  0  0  0  0  0  0  0  0  0  0
   20.8689   18.9416   24.3890 H   0  0  0  0  0  0  0  0  0  0  0  0
   21.8515   20.0955   22.8084 C   0  0  0  0  0  0  0  0  0  0  0  0
   21.8753   21.1379   22.4627 H   0  0  0  0  0  0  0  0  0  0  0  0
   22.8837   19.8486   23.0917 H   0  0  0  0  0  0  0  0  0  0  0  0
   21.4374   19.1744   21.6400 C   0  0  0  0  0  0  0  0  0  0  0  0
   21.6170   18.1275   21.9186 H   0  0  0  0  0  0  0  0  0  0  0  0
   22.1118   19.3740   20.7965 H   0  0  0  0  0  0  0  0  0  0  0  0
   19.9750   19.3496   21.1480 C   0  0  0  0  0  0  0  0  0  0  0  0
   19.7708   20.4082   20.9429 H   0  0  0  0  0  0  0  0  0  0  0  0
   19.8865   18.8380   20.1811 H   0  0  0  0  0  0  0  0  0  0  0  0
   18.8736   18.7710   22.0732 C   0  0  0  0  0  0  0  0  0  0  0  0
   17.9633   18.6826   21.4626 H   0  0  0  0  0  0  0  0  0  0  0  0
   18.4893   19.6440   23.2960 C   0  0  0  0  0  0  0  0  0  0  0  0
   17.6117   20.2436   23.0216 H   0  0  0  0  0  0  0  0  0  0  0  0
   18.1485   18.9902   24.1095 H   0  0  0  0  0  0  0  0  0  0  0  0
   19.5596   20.6138   23.8555 C   0  0  0  0  0  0  0  0  0  0  0  0
   19.6405   21.4953   23.2053 H   0  0  0  0  0  0  0  0  0  0  0  0
   19.1976   20.9924   24.8210 H   0  0  0  0  0  0  0  0  0  0  0  0
   19.2276   17.4618   22.5110 O   0  0  0  0  0  0  0  0  0  0  0  0
   18.4824   17.1342   23.0545 H   0  0  0  0  0  0  0  0  0  0  0  0
  1  2  1  0  0  0  0
  1  3  1  0  0  0  0
  1  4  1  0  0  0  0
  4  5  1  0  0  0  0
  4  6  1  0  0  0  0
  4  7  1  0  0  0  0
  7  8  1  0  0  0  0
  7  9  1  0  0  0  0
  7 10  1  0  0  0  0
 10 11  1  0  0  0  0
 10 12  1  0  0  0  0
 10 13  1  0  0  0  0
 13 14  1  0  0  0  0
 13 15  1  0  0  0  0
 15 16  1  0  0  0  0
 15 17  1  0  0  0  0
  1 18  1  0  0  0  0
 15 18  1  0  0  0  0
 18 19  1  0  0  0  0
 18 20  1  0  0  0  0
 13 21  1  0  0  0  0
 21 22  1  0  0  0  0
M  END
> <VConfSearch Rank>
766

> <Conf_Id>
104

> <Delta U+W>
-1.172

> <U+W>
5.252

> <U>
7.482

> <W>
-2.230

> <W(PB)>
-4.220

> <W(SA)>
1.990

> <Valence>
12.309

> <Coulomb>
-7.084

> <VdW>
2.258

> <VdW6>
-9.770

> <VdW12>
12.028

> <Bond>
0.284

> <Angle>
3.491

> <Pdih>
8.535

> <Idih>
0.000

> <Tether>
0.000

$$$$
VeraChem MOL file


 22 22  0  0  0  0  0  0  0  0999 V2000     
   18.4704   19.9337   22.4516 C   0  0  0  0  0  0  0  0  0  0  0  0
   18.3053   19.0653   21.7997 H   0  0  0  0  0  0  0  0  0  0  0  0
   17.5065   20.4578   22.5067 H   0  0  0  0  0  0  0  0  0  0  0  0
   19.5009   20.9034   21.8292 C   0  0  0  0  0  0  0  0  0  0  0  0
   18.9956   21.5066   21.0623 H   0  0  0  0  0  0  0  0  0  0  0  0
   19.8261   21.6255   22.5896 H   0  0  0  0  0  0  0  0  0  0  0  0
   20.7352   20.2384   21.1690 C   0  0  0  0  0  0  0  0  0  0  0  0
   21.5649   20.9587   21.1784 H   0  0  0  0  0  0  0  0  0  0  0  0
   20.5109   20.0667   20.1073 H   0  0  0  0  0  0  0  0  0  0  0  0
   21.2231   18.8914   21.7677 C   0  0  0  0  0  0  0  0  0  0  0  0
   20.5769   18.0820   21.4040 H   0  0  0  0  0  0  0  0  0  0  0  0
   22.2159   18.6756   21.3520 H   0  0  0  0  0  0  0  0  0  0  0  0
   21.3166   18.7978   23.3080 C   0  0  0  0  0  0  0  0  0  0  0  0
   22.0203   17.9867   23.5442 H   0  0  0  0  0  0  0  0  0  0  0  0
   19.9699   18.4276   23.9696 C   0  0  0  0  0  0  0  0  0  0  0  0
   19.6086   17.4888   23.5301 H   0  0  0  0  0  0  0  0  0  0  0  0
   20.1585   18.2049   25.0280 H   0  0  0  0  0  0  0  0  0  0  0  0
   18.8436   19.4874   23.8853 C   0  0  0  0  0  0  0  0  0  0  0  0
   17.9474   19.0641   24.3590 H   0  0  0  0  0  0  0  0  0  0  0  0
   19.1110   20.3640   24.4908 H   0  0  0  0  0  0  0  0  0  0  0  0
   21.8118   20.0114   23.8522 O   0  0  0  0  0  0  0  0  0  0  0  0
   21.1844   20.6898   23.5322 H   0  0  0  0  0  0  0  0  0  0  0  0
  1  2  1  0  0  0  0
  1  3  1  0  0  0  0
  1  4  1  0  0  0  0
  4  5  1  0  0  0  0
  4  6  1  0  0  0  0
  4  7  1  0  0  0  0
  7  8  1  0  0  0  0
  7  9  1  0  0  0  0
  7 10  1  0  0  0  0
 10 11  1  0  0  0  0
 10 12  1  0  0  0  0
 10 13  1  0  0  0  0
 13 14  1  0  0  0  0
 13 15  1  0  0  0  0
 15 16  1  0  0  0  0
 15 17  1  0  0  0  0
  1 18  1  0  0  0  0
 15 18  1  0  0  0  0
 18 19  1  0  0  0  0
 18 20  1  0  0  0  0
 13 21  1  0  0  0  0
 21 22  1  0  0  0  0
M  END
> <VConfSearch Rank>
767

> <Conf_Id>
99

> <Delta U+W>
-3.852

> <U+W>
2.572

> <U>
3.922

> <W>
-1.350

> <W(PB)>
-3.345

> <W(SA)>
1.995

> <Valence>
12.571

> <Coulomb>
-10.581

> <VdW>
1.932

> <VdW6>
-10.483

> <VdW12>
12.415

> <Bond>
0.268

> <Angle>
3.728

> <Pdih>
8.575

> <Idih>
0.000

> <Tether>
0.000

$$$$
VeraChem MOL file


 22 22  0  0  0  0  0  0  0  0999 V2000     
   19.0271   18.4029   23.1934 C   0  0  0  0  0  0  0  0  0  0  0  0
   18.8220   17.4111   23.6196 H   0  0  0  0  0  0  0  0  0  0  0  0
   18.0380   18.8536   23.0366 H   0  0  0  0  0  0  0  0  0  0  0  0
   19.7452   18.1963   21.8276 C   0  0  0  0  0  0  0  0  0  0  0  0
   19.8507   17.1152   21.6625 H   0  0  0  0  0  0  0  0  0  0  0  0
   19.1052   18.5468   21.0068 H   0  0  0  0  0  0  0  0  0  0  0  0
   21.1522   18.8335   21.6970 C   0  0  0  0  0  0  0  0  0  0  0  0
   21.6201   18.4547   20.7781 H   0  0  0  0  0  0  0  0  0  0  0  0
   21.7993   18.4711   22.5053 H   0  0  0  0  0  0  0  0  0  0  0  0
   21.1950   20.3861   21.6469 C   0  0  0  0  0  0  0  0  0  0  0  0
   22.1989   20.7114   21.9484 H   0  0  0  0  0  0  0  0  0  0  0  0
   21.0897   20.7023   20.6005 H   0  0  0  0  0  0  0  0  0  0  0  0
   20.1538   21.1743   22.4793 C   0  0  0  0  0  0  0  0  0  0  0  0
   20.4847   22.2226   22.4947 H   0  0  0  0  0  0  0  0  0  0  0  0
   19.9815   20.7352   23.9543 C   0  0  0  0  0  0  0  0  0  0  0  0
   20.8420   21.1020   24.5286 H   0  0  0  0  0  0  0  0  0  0  0  0
   19.1127   21.2708   24.3595 H   0  0  0  0  0  0  0  0  0  0  0  0
   19.8077   19.2204   24.2542 C   0  0  0  0  0  0  0  0  0  0  0  0
   20.7894   18.7619   24.4262 H   0  0  0  0  0  0  0  0  0  0  0  0
   19.2866   19.1261   25.2166 H   0  0  0  0  0  0  0  0  0  0  0  0
   18.8963   21.1418   21.8229 O   0  0  0  0  0  0  0  0  0  0  0  0
   18.6476   20.1958   21.8353 H   0  0  0  0  0  0  0  0  0  0  0  0
  1  2  1  0  0  0  0
  1  3  1  0  0  0  0
  1  4  1  0  0  0  0
  4  5  1  0  0  0  0
  4  6  1  0  0  0  0
  4  7  1  0  0  0  0
  7  8  1  0  0  0  0
  7  9  1  0  0  0  0
  7 10  1  0  0  0  0
 10 11  1  0  0  0  0
 10 12  1  0  0  0  0
 10 13  1  0  0  0  0
 13 14  1  0  0  0  0
 13 15  1  0  0  0  0
 15 16  1  0  0  0  0
 15 17  1  0  0  0  0
  1 18  1  0  0  0  0
 15 18  1  0  0  0  0
 18 19  1  0  0  0  0
 18 20  1  0  0  0  0
 13 21  1  0  0  0  0
 21 22  1  0  0  0  0
M  END
> <VConfSearch Rank>
768

> <Conf_Id>
98

> <Delta U+W>
0.930

> <U+W>
7.353

> <U>
8.455

> <W>
-1.102

> <W(PB)>
-3.101

> <W(SA)>
2.000

> <Valence>
15.601

> <Coulomb>
-10.573

> <VdW>
3.427

> <VdW6>
-11.360

> <VdW12>
14.787

> <Bond>
0.471

> <Angle>
5.445

> <Pdih>
9.685

> <Idih>
0.000

> <Tether>
0.000

$$$$
VeraChem MOL file


 22 22  0  0  0  0  0  0  0  0999 V2000     
   20.2386   19.7385   24.3470 C   0  0  0  0  0  0  0  0  0  0  0  0
   20.0389   20.8065   24.1916 H   0  0  0  0  0  0  0  0  0  0  0  0
   20.3652   19.6271   25.4325 H   0  0  0  0  0  0  0  0  0  0  0  0
   21.5680   19.3476   23.6527 C   0  0  0  0  0  0  0  0  0  0  0  0
   22.3636   19.9664   24.0896 H   0  0  0  0  0  0  0  0  0  0  0  0
   21.8245   18.3102   23.9070 H   0  0  0  0  0  0  0  0  0  0  0  0
   21.6133   19.5209   22.1091 C   0  0  0  0  0  0  0  0  0  0  0  0
   21.5126   18.5446   21.6176 H   0  0  0  0  0  0  0  0  0  0  0  0
   22.6162   19.8741   21.8334 H   0  0  0  0  0  0  0  0  0  0  0  0
   20.5629   20.5037   21.5272 C   0  0  0  0  0  0  0  0  0  0  0  0
   20.6253   21.4575   22.0657 H   0  0  0  0  0  0  0  0  0  0  0  0
   20.8502   20.7440   20.4947 H   0  0  0  0  0  0  0  0  0  0  0  0
   19.0876   20.0065   21.5370 C   0  0  0  0  0  0  0  0  0  0  0  0
   18.4571   20.8239   21.9157 H   0  0  0  0  0  0  0  0  0  0  0  0
   18.8044   18.7436   22.3887 C   0  0  0  0  0  0  0  0  0  0  0  0
   17.7680   18.4248   22.2179 H   0  0  0  0  0  0  0  0  0  0  0  0
   19.4216   17.9109   22.0305 H   0  0  0  0  0  0  0  0  0  0  0  0
   19.0030   18.9140   23.9155 C   0  0  0  0  0  0  0  0  0  0  0  0
   18.1089   19.3914   24.3392 H   0  0  0  0  0  0  0  0  0  0  0  0
   19.0575   17.9168   24.3730 H   0  0  0  0  0  0  0  0  0  0  0  0
   18.7018   19.7136   20.1989 O   0  0  0  0  0  0  0  0  0  0  0  0
   17.7559   19.4592   20.2267 H   0  0  0  0  0  0  0  0  0  0  0  0
  1  2  1  0  0  0  0
  1  3  1  0  0  0  0
  1  4  1  0  0  0  0
  4  5  1  0  0  0  0
  4  6  1  0  0  0  0
  4  7  1  0  0  0  0
  7  8  1  0  0  0  0
  7  9  1  0  0  0  0
  7 10  1  0  0  0  0
 10 11  1  0  0  0  0
 10 12  1  0  0  0  0
 10 13  1  0  0  0  0
 13 14  1  0  0  0  0
 13 15  1  0  0  0  0
 15 16  1  0  0  0  0
 15 17  1  0  0  0  0
  1 18  1  0  0  0  0
 15 18  1  0  0  0  0
 18 19  1  0  0  0  0
 18 20  1  0  0  0  0
 13 21  1  0  0  0  0
 21 22  1  0  0  0  0
M  END
> <VConfSearch Rank>
769

> <Conf_Id>
141

> <Delta U+W>
0.000

> <U+W>
6.423

> <U>
8.781

> <W>
-2.358

> <W(PB)>
-4.373

> <W(SA)>
2.015

> <Valence>
13.328

> <Coulomb>
-8.387

> <VdW>
3.840

> <VdW6>
-9.744

> <VdW12>
13.584

> <Bond>
0.436

> <Angle>
3.478

> <Pdih>
9.415

> <Idih>
0.000

> <Tether>
0.000

$$$$
VeraChem MOL file


 22 22  0  0  0  0  0  0  0  0999 V2000     
   18.6693   18.6344   22.0454 C   0  0  0  0  0  0  0  0  0  0  0  0
   19.3501   17.7726   22.0238 H   0  0  0  0  0  0  0  0  0  0  0  0
   17.6875   18.2537   21.7322 H   0  0  0  0  0  0  0  0  0  0  0  0
   19.1047   19.7096   21.0208 C   0  0  0  0  0  0  0  0  0  0  0  0
   18.9448   19.3136   20.0087 H   0  0  0  0  0  0  0  0  0  0  0  0
   18.4444   20.5834   21.1071 H   0  0  0  0  0  0  0  0  0  0  0  0
   20.5769   20.1685   21.1320 C   0  0  0  0  0  0  0  0  0  0  0  0
   20.7406   20.9737   20.4028 H   0  0  0  0  0  0  0  0  0  0  0  0
   21.2392   19.3474   20.8252 H   0  0  0  0  0  0  0  0  0  0  0  0
   20.9998   20.6763   22.5321 C   0  0  0  0  0  0  0  0  0  0  0  0
   21.9698   21.1792   22.4238 H   0  0  0  0  0  0  0  0  0  0  0  0
   20.2990   21.4393   22.8953 H   0  0  0  0  0  0  0  0  0  0  0  0
   21.1391   19.5345   23.5638 C   0  0  0  0  0  0  0  0  0  0  0  0
   21.4840   18.6338   23.0359 H   0  0  0  0  0  0  0  0  0  0  0  0
   19.8344   19.1860   24.3158 C   0  0  0  0  0  0  0  0  0  0  0  0
   19.9637   18.1904   24.7597 H   0  0  0  0  0  0  0  0  0  0  0  0
   19.7057   19.8770   25.1596 H   0  0  0  0  0  0  0  0  0  0  0  0
   18.5294   19.1927   23.4810 C   0  0  0  0  0  0  0  0  0  0  0  0
   17.7775   18.6019   24.0218 H   0  0  0  0  0  0  0  0  0  0  0  0
   18.1259   20.2135   23.4381 H   0  0  0  0  0  0  0  0  0  0  0  0
   22.1179   19.9042   24.5274 O   0  0  0  0  0  0  0  0  0  0  0  0
   22.9554   20.0468   24.0387 H   0  0  0  0  0  0  0  0  0  0  0  0
  1  2  1  0  0  0  0
  1  3  1  0  0  0  0
  1  4  1  0  0  0  0
  4  5  1  0  0  0  0
  4  6  1  0  0  0  0
  4  7  1  0  0  0  0
  7  8  1  0  0  0  0
  7  9  1  0  0  0  0
  7 10  1  0  0  0  0
 10 11  1  0  0  0  0
 10 12  1  0  0  0  0
 10 13  1  0  0  0  0
 13 14  1  0  0  0  0
 13 15  1  0  0  0  0
 15 16  1  0  0  0  0
 15 17  1  0  0  0  0
  1 18  1  0  0  0  0
 15 18  1  0  0  0  0
 18 19  1  0  0  0  0
 18 20  1  0  0  0  0
 13 21  1  0  0  0  0
 21 22  1  0  0  0  0
M  END
> <VConfSearch Rank>
770

> <Conf_Id>
144

> <Delta U+W>
-3.291

> <U+W>
3.132

> <U>
5.411

> <W>
-2.279

> <W(PB)>
-4.300

> <W(SA)>
2.021

> <Valence>
11.909

> <Coulomb>
-8.733

> <VdW>
2.236

> <VdW6>
-8.936

> <VdW12>
11.172

> <Bond>
0.223

> <Angle>
2.457

> <Pdih>
9.228

> <Idih>
0.000

> <Tether>
0.000

$$$$
VeraChem MOL file


 22 22  0  0  0  0  0  0  0  0999 V2000     
   18.6542   19.6992   23.8061 C   0  0  0  0  0  0  0  0  0  0  0  0
   18.0182   19.6208   24.6984 H   0  0  0  0  0  0  0  0  0  0  0  0
   18.1089   20.3398   23.0996 H   0  0  0  0  0  0  0  0  0  0  0  0
   18.8439   18.2775   23.2275 C   0  0  0  0  0  0  0  0  0  0  0  0
   19.6463   17.7642   23.7747 H   0  0  0  0  0  0  0  0  0  0  0  0
   17.9355   17.6908   23.4214 H   0  0  0  0  0  0  0  0  0  0  0  0
   19.1327   18.2205   21.7078 C   0  0  0  0  0  0  0  0  0  0  0  0
   18.1810   18.2673   21.1611 H   0  0  0  0  0  0  0  0  0  0  0  0
   19.5607   17.2352   21.4775 H   0  0  0  0  0  0  0  0  0  0  0  0
   20.0667   19.3199   21.1446 C   0  0  0  0  0  0  0  0  0  0  0  0
   20.4424   18.9753   20.1717 H   0  0  0  0  0  0  0  0  0  0  0  0
   19.4764   20.2209   20.9336 H   0  0  0  0  0  0  0  0  0  0  0  0
   21.2585   19.6916   22.0552 C   0  0  0  0  0  0  0  0  0  0  0  0
   21.6046   18.7970   22.5922 H   0  0  0  0  0  0  0  0  0  0  0  0
   20.9045   20.8016   23.0708 C   0  0  0  0  0  0  0  0  0  0  0  0
   21.8353   21.1928   23.5028 H   0  0  0  0  0  0  0  0  0  0  0  0
   20.4368   21.6439   22.5447 H   0  0  0  0  0  0  0  0  0  0  0  0
   19.9870   20.3584   24.2351 C   0  0  0  0  0  0  0  0  0  0  0  0
   20.5385   19.6721   24.8922 H   0  0  0  0  0  0  0  0  0  0  0  0
   19.7598   21.2413   24.8480 H   0  0  0  0  0  0  0  0  0  0  0  0
   22.3150   20.1718   21.2346 O   0  0  0  0  0  0  0  0  0  0  0  0
   21.9691   20.9637   20.7737 H   0  0  0  0  0  0  0  0  0  0  0  0
  1  2  1  0  0  0  0
  1  3  1  0  0  0  0
  1  4  1  0  0  0  0
  4  5  1  0  0  0  0
  4  6  1  0  0  0  0
  4  7  1  0  0  0  0
  7  8  1  0  0  0  0
  7  9  1  0  0  0  0
  7 10  1  0  0  0  0
 10 11  1  0  0  0  0
 10 12  1  0  0  0  0
 10 13  1  0  0  0  0
 13 14  1  0  0  0  0
 13 15  1  0  0  0  0
 15 16  1  0  0  0  0
 15 17  1  0  0  0  0
  1 18  1  0  0  0  0
 15 18  1  0  0  0  0
 18 19  1  0  0  0  0
 18 20  1  0  0  0  0
 13 21  1  0  0  0  0
 21 22  1  0  0  0  0
M  END
> <VConfSearch Rank>
771

> <Conf_Id>
76

> <Delta U+W>
-3.175

> <U+W>
3.248

> <U>
5.336

> <W>
-2.088

> <W(PB)>
-4.098

> <W(SA)>
2.010

> <Valence>
12.390

> <Coulomb>
-9.270

> <VdW>
2.216

> <VdW6>
-8.967

> <VdW12>
11.183

> <Bond>
0.218

> <Angle>
2.426

> <Pdih>
9.745

> <Idih>
0.000

> <Tether>
0.000

$$$$
VeraChem MOL file


 22 22  0  0  0  0  0  0  0  0999 V2000     
   18.9447   20.9499   23.2492 C   0  0  0  0  0  0  0  0  0  0  0  0
   18.1191   21.4056   22.6856 H   0  0  0  0  0  0  0  0  0  0  0  0
   18.9242   21.4213   24.2413 H   0  0  0  0  0  0  0  0  0  0  0  0
   20.2727   21.3193   22.5458 C   0  0  0  0  0  0  0  0  0  0  0  0
   20.1208   21.3299   21.4580 H   0  0  0  0  0  0  0  0  0  0  0  0
   20.5241   22.3537   22.8172 H   0  0  0  0  0  0  0  0  0  0  0  0
   21.4714   20.4045   22.8890 C   0  0  0  0  0  0  0  0  0  0  0  0
   21.4461   20.1021   23.9449 H   0  0  0  0  0  0  0  0  0  0  0  0
   22.3931   20.9879   22.7612 H   0  0  0  0  0  0  0  0  0  0  0  0
   21.5649   19.1653   21.9629 C   0  0  0  0  0  0  0  0  0  0  0  0
   21.5156   19.4925   20.9165 H   0  0  0  0  0  0  0  0  0  0  0  0
   22.5576   18.7121   22.0835 H   0  0  0  0  0  0  0  0  0  0  0  0
   20.5068   18.0617   22.1897 C   0  0  0  0  0  0  0  0  0  0  0  0
   20.5978   17.3578   21.3498 H   0  0  0  0  0  0  0  0  0  0  0  0
   19.0375   18.5526   22.2157 C   0  0  0  0  0  0  0  0  0  0  0  0
   18.8041   19.0779   21.2806 H   0  0  0  0  0  0  0  0  0  0  0  0
   18.3920   17.6649   22.2253 H   0  0  0  0  0  0  0  0  0  0  0  0
   18.6605   19.4398   23.4306 C   0  0  0  0  0  0  0  0  0  0  0  0
   17.5880   19.3210   23.6358 H   0  0  0  0  0  0  0  0  0  0  0  0
   19.1708   19.0791   24.3333 H   0  0  0  0  0  0  0  0  0  0  0  0
   20.8099   17.3600   23.3912 O   0  0  0  0  0  0  0  0  0  0  0  0
   20.0907   16.7091   23.5231 H   0  0  0  0  0  0  0  0  0  0  0  0
  1  2  1  0  0  0  0
  1  3  1  0  0  0  0
  1  4  1  0  0  0  0
  4  5  1  0  0  0  0
  4  6  1  0  0  0  0
  4  7  1  0  0  0  0
  7  8  1  0  0  0  0
  7  9  1  0  0  0  0
  7 10  1  0  0  0  0
 10 11  1  0  0  0  0
 10 12  1  0  0  0  0
 10 13  1  0  0  0  0
 13 14  1  0  0  0  0
 13 15  1  0  0  0  0
 15 16  1  0  0  0  0
 15 17  1  0  0  0  0
  1 18  1  0  0  0  0
 15 18  1  0  0  0  0
 18 19  1  0  0  0  0
 18 20  1  0  0  0  0
 13 21  1  0  0  0  0
 21 22  1  0  0  0  0
M  END
> <VConfSearch Rank>
772

> <Conf_Id>
95

> <Delta U+W>
-2.289

> <U+W>
4.134

> <U>
6.373

> <W>
-2.240

> <W(PB)>
-4.254

> <W(SA)>
2.015

> <Valence>
12.093

> <Coulomb>
-8.058

> <VdW>
2.339

> <VdW6>
-9.683

> <VdW12>
12.022

> <Bond>
0.268

> <Angle>
3.005

> <Pdih>
8.820

> <Idih>
0.000

> <Tether>
0.000

$$$$
VeraChem MOL file


 22 22  0  0  0  0  0  0  0  0999 V2000     
   19.1041   19.0420   21.1499 C   0  0  0  0  0  0  0  0  0  0  0  0
   19.5046   18.8781   20.1402 H   0  0  0  0  0  0  0  0  0  0  0  0
   18.0436   18.7597   21.0993 H   0  0  0  0  0  0  0  0  0  0  0  0
   19.2056   20.5521   21.4717 C   0  0  0  0  0  0  0  0  0  0  0  0
   20.1252   20.9593   21.0299 H   0  0  0  0  0  0  0  0  0  0  0  0
   18.3813   21.0648   20.9575 H   0  0  0  0  0  0  0  0  0  0  0  0
   19.1566   20.9064   22.9762 C   0  0  0  0  0  0  0  0  0  0  0  0
   18.4523   20.2545   23.5109 H   0  0  0  0  0  0  0  0  0  0  0  0
   18.7612   21.9266   23.0728 H   0  0  0  0  0  0  0  0  0  0  0  0
   20.5551   20.8768   23.6429 C   0  0  0  0  0  0  0  0  0  0  0  0
   21.2542   21.4676   23.0371 H   0  0  0  0  0  0  0  0  0  0  0  0
   20.4950   21.3968   24.6078 H   0  0  0  0  0  0  0  0  0  0  0  0
   21.1677   19.4775   23.8811 C   0  0  0  0  0  0  0  0  0  0  0  0
   22.2111   19.6360   24.1898 H   0  0  0  0  0  0  0  0  0  0  0  0
   21.1971   18.5523   22.6387 C   0  0  0  0  0  0  0  0  0  0  0  0
   21.7488   19.0374   21.8234 H   0  0  0  0  0  0  0  0  0  0  0  0
   21.7823   17.6641   22.9098 H   0  0  0  0  0  0  0  0  0  0  0  0
   19.8084   18.0793   22.1355 C   0  0  0  0  0  0  0  0  0  0  0  0
   19.9269   17.1097   21.6334 H   0  0  0  0  0  0  0  0  0  0  0  0
   19.1483   17.8837   22.9909 H   0  0  0  0  0  0  0  0  0  0  0  0
   20.4806   18.8373   24.9520 O   0  0  0  0  0  0  0  0  0  0  0  0
   20.4764   19.4679   25.7006 H   0  0  0  0  0  0  0  0  0  0  0  0
  1  2  1  0  0  0  0
  1  3  1  0  0  0  0
  1  4  1  0  0  0  0
  4  5  1  0  0  0  0
  4  6  1  0  0  0  0
  4  7  1  0  0  0  0
  7  8  1  0  0  0  0
  7  9  1  0  0  0  0
  7 10  1  0  0  0  0
 10 11  1  0  0  0  0
 10 12  1  0  0  0  0
 10 13  1  0  0  0  0
 13 14  1  0  0  0  0
 13 15  1  0  0  0  0
 15 16  1  0  0  0  0
 15 17  1  0  0  0  0
  1 18  1  0  0  0  0
 15 18  1  0  0  0  0
 18 19  1  0  0  0  0
 18 20  1  0  0  0  0
 13 21  1  0  0  0  0
 21 22  1  0  0  0  0
M  END
> <VConfSearch Rank>
773

> <Conf_Id>
41

> <Delta U+W>
-2.114

> <U+W>
4.310

> <U>
6.598

> <W>
-2.289

> <W(PB)>
-4.294

> <W(SA)>
2.005

> <Valence>
12.082

> <Coulomb>
-7.801

> <VdW>
2.317

> <VdW6>
-9.658

> <VdW12>
11.975

> <Bond>
0.267

> <Angle>
3.051

> <Pdih>
8.764

> <Idih>
0.000

> <Tether>
0.000

$$$$
VeraChem MOL file


 22 22  0  0  0  0  0  0  0  0999 V2000     
   18.9093   19.7372   23.8783 C   0  0  0  0  0  0  0  0  0  0  0  0
   18.0579   20.0651   24.4900 H   0  0  0  0  0  0  0  0  0  0  0  0
   19.1382   18.7101   24.1943 H   0  0  0  0  0  0  0  0  0  0  0  0
   20.0977   20.6785   24.1770 C   0  0  0  0  0  0  0  0  0  0  0  0
   19.8737   21.6848   23.7980 H   0  0  0  0  0  0  0  0  0  0  0  0
   20.1978   20.7823   25.2659 H   0  0  0  0  0  0  0  0  0  0  0  0
   21.4536   20.2041   23.6098 C   0  0  0  0  0  0  0  0  0  0  0  0
   21.7787   19.3026   24.1460 H   0  0  0  0  0  0  0  0  0  0  0  0
   22.2045   20.9711   23.8422 H   0  0  0  0  0  0  0  0  0  0  0  0
   21.4749   19.9479   22.0784 C   0  0  0  0  0  0  0  0  0  0  0  0
   21.0771   20.8205   21.5449 H   0  0  0  0  0  0  0  0  0  0  0  0
   22.5250   19.8656   21.7701 H   0  0  0  0  0  0  0  0  0  0  0  0
   20.7552   18.6625   21.5950 C   0  0  0  0  0  0  0  0  0  0  0  0
   21.1230   18.4583   20.5790 H   0  0  0  0  0  0  0  0  0  0  0  0
   19.2109   18.7524   21.4844 C   0  0  0  0  0  0  0  0  0  0  0  0
   18.9596   18.9995   20.4448 H   0  0  0  0  0  0  0  0  0  0  0  0
   18.7814   17.7566   21.6557 H   0  0  0  0  0  0  0  0  0  0  0  0
   18.4801   19.7702   22.3948 C   0  0  0  0  0  0  0  0  0  0  0  0
   18.6044   20.7854   21.9943 H   0  0  0  0  0  0  0  0  0  0  0  0
   17.4034   19.5605   22.3360 H   0  0  0  0  0  0  0  0  0  0  0  0
   21.1136   17.5527   22.4141 O   0  0  0  0  0  0  0  0  0  0  0  0
   20.6641   16.7681   22.0396 H   0  0  0  0  0  0  0  0  0  0  0  0
  1  2  1  0  0  0  0
  1  3  1  0  0  0  0
  1  4  1  0  0  0  0
  4  5  1  0  0  0  0
  4  6  1  0  0  0  0
  4  7  1  0  0  0  0
  7  8  1  0  0  0  0
  7  9  1  0  0  0  0
  7 10  1  0  0  0  0
 10 11  1  0  0  0  0
 10 12  1  0  0  0  0
 10 13  1  0  0  0  0
 13 14  1  0  0  0  0
 13 15  1  0  0  0  0
 15 16  1  0  0  0  0
 15 17  1  0  0  0  0
  1 18  1  0  0  0  0
 15 18  1  0  0  0  0
 18 19  1  0  0  0  0
 18 20  1  0  0  0  0
 13 21  1  0  0  0  0
 21 22  1  0  0  0  0
M  END
> <VConfSearch Rank>
774

> <Conf_Id>
104

> <Delta U+W>
-1.172

> <U+W>
5.252

> <U>
7.482

> <W>
-2.230

> <W(PB)>
-4.220

> <W(SA)>
1.990

> <Valence>
12.309

> <Coulomb>
-7.084

> <VdW>
2.258

> <VdW6>
-9.770

> <VdW12>
12.028

> <Bond>
0.284

> <Angle>
3.491

> <Pdih>
8.535

> <Idih>
0.000

> <Tether>
0.000

$$$$
VeraChem MOL file


 22 22  0  0  0  0  0  0  0  0999 V2000     
   18.4830   19.3170   22.3031 C   0  0  0  0  0  0  0  0  0  0  0  0
   18.7205   18.5316   21.5729 H   0  0  0  0  0  0  0  0  0  0  0  0
   17.3894   19.4206   22.2905 H   0  0  0  0  0  0  0  0  0  0  0  0
   19.0912   20.6719   21.8742 C   0  0  0  0  0  0  0  0  0  0  0  0
   18.4464   21.1171   21.1039 H   0  0  0  0  0  0  0  0  0  0  0  0
   19.0501   21.3725   22.7184 H   0  0  0  0  0  0  0  0  0  0  0  0
   20.5319   20.6116   21.3064 C   0  0  0  0  0  0  0  0  0  0  0  0
   21.0083   21.5893   21.4623 H   0  0  0  0  0  0  0  0  0  0  0  0
   20.4708   20.4881   20.2164 H   0  0  0  0  0  0  0  0  0  0  0  0
   21.4655   19.4971   21.8517 C   0  0  0  0  0  0  0  0  0  0  0  0
   21.2180   18.5483   21.3582 H   0  0  0  0  0  0  0  0  0  0  0  0
   22.4905   19.7280   21.5335 H   0  0  0  0  0  0  0  0  0  0  0  0
   21.4763   19.2730   23.3813 C   0  0  0  0  0  0  0  0  0  0  0  0
   22.4233   18.7736   23.6319 H   0  0  0  0  0  0  0  0  0  0  0  0
   20.3398   18.3415   23.8595 C   0  0  0  0  0  0  0  0  0  0  0  0
   20.4097   17.3922   23.3126 H   0  0  0  0  0  0  0  0  0  0  0  0
   20.5235   18.0902   24.9123 H   0  0  0  0  0  0  0  0  0  0  0  0
   18.8967   18.8893   23.7314 C   0  0  0  0  0  0  0  0  0  0  0  0
   18.2075   18.1035   24.0693 H   0  0  0  0  0  0  0  0  0  0  0  0
   18.7531   19.7268   24.4275 H   0  0  0  0  0  0  0  0  0  0  0  0
   21.4135   20.5138   24.0674 O   0  0  0  0  0  0  0  0  0  0  0  0
   20.5947   20.9305   23.7322 H   0  0  0  0  0  0  0  0  0  0  0  0
  1  2  1  0  0  0  0
  1  3  1  0  0  0  0
  1  4  1  0  0  0  0
  4  5  1  0  0  0  0
  4  6  1  0  0  0  0
  4  7  1  0  0  0  0
  7  8  1  0  0  0  0
  7  9  1  0  0  0  0
  7 10  1  0  0  0  0
 10 11  1  0  0  0  0
 10 12  1  0  0  0  0
 10 13  1  0  0  0  0
 13 14  1  0  0  0  0
 13 15  1  0  0  0  0
 15 16  1  0  0  0  0
 15 17  1  0  0  0  0
  1 18  1  0  0  0  0
 15 18  1  0  0  0  0
 18 19  1  0  0  0  0
 18 20  1  0  0  0  0
 13 21  1  0  0  0  0
 21 22  1  0  0  0  0
M  END
> <VConfSearch Rank>
775

> <Conf_Id>
99

> <Delta U+W>
-3.852

> <U+W>
2.572

> <U>
3.922

> <W>
-1.350

> <W(PB)>
-3.345

> <W(SA)>
1.995

> <Valence>
12.571

> <Coulomb>
-10.581

> <VdW>
1.932

> <VdW6>
-10.483

> <VdW12>
12.415

> <Bond>
0.268

> <Angle>
3.728

> <Pdih>
8.575

> <Idih>
0.000

> <Tether>
0.000

$$$$
VeraChem MOL file


 22 22  0  0  0  0  0  0  0  0999 V2000     
   20.8262   20.9523   22.0718 C   0  0  0  0  0  0  0  0  0  0  0  0
   20.9263   21.7523   21.3253 H   0  0  0  0  0  0  0  0  0  0  0  0
   21.6155   21.1523   22.8087 H   0  0  0  0  0  0  0  0  0  0  0  0
   21.0919   19.5955   21.3560 C   0  0  0  0  0  0  0  0  0  0  0  0
   21.3073   19.8083   20.2998 H   0  0  0  0  0  0  0  0  0  0  0  0
   22.0103   19.1359   21.7451 H   0  0  0  0  0  0  0  0  0  0  0  0
   19.9353   18.5646   21.4037 C   0  0  0  0  0  0  0  0  0  0  0  0
   20.1711   17.7470   20.7090 H   0  0  0  0  0  0  0  0  0  0  0  0
   19.0207   19.0152   20.9987 H   0  0  0  0  0  0  0  0  0  0  0  0
   19.6395   17.9365   22.7940 C   0  0  0  0  0  0  0  0  0  0  0  0
   18.6086   17.5597   22.7877 H   0  0  0  0  0  0  0  0  0  0  0  0
   20.2726   17.0473   22.9146 H   0  0  0  0  0  0  0  0  0  0  0  0
   19.8308   18.8194   24.0518 C   0  0  0  0  0  0  0  0  0  0  0  0
   19.3634   18.2849   24.8912 H   0  0  0  0  0  0  0  0  0  0  0  0
   19.1908   20.2287   24.0035 C   0  0  0  0  0  0  0  0  0  0  0  0
   18.1069   20.1228   24.1404 H   0  0  0  0  0  0  0  0  0  0  0  0
   19.5418   20.7817   24.8849 H   0  0  0  0  0  0  0  0  0  0  0  0
   19.4378   21.1048   22.7440 C   0  0  0  0  0  0  0  0  0  0  0  0
   18.6469   20.9233   22.0057 H   0  0  0  0  0  0  0  0  0  0  0  0
   19.3075   22.1560   23.0352 H   0  0  0  0  0  0  0  0  0  0  0  0
   21.2139   18.9345   24.3467 O   0  0  0  0  0  0  0  0  0  0  0  0
   21.5809   19.4129   23.5764 H   0  0  0  0  0  0  0  0  0  0  0  0
  1  2  1  0  0  0  0
  1  3  1  0  0  0  0
  1  4  1  0  0  0  0
  4  5  1  0  0  0  0
  4  6  1  0  0  0  0
  4  7  1  0  0  0  0
  7  8  1  0  0  0  0
  7  9  1  0  0  0  0
  7 10  1  0  0  0  0
 10 11  1  0  0  0  0
 10 12  1  0  0  0  0
 10 13  1  0  0  0  0
 13 14  1  0  0  0  0
 13 15  1  0  0  0  0
 15 16  1  0  0  0  0
 15 17  1  0  0  0  0
  1 18  1  0  0  0  0
 15 18  1  0  0  0  0
 18 19  1  0  0  0  0
 18 20  1  0  0  0  0
 13 21  1  0  0  0  0
 21 22  1  0  0  0  0
M  END
> <VConfSearch Rank>
776

> <Conf_Id>
98

> <Delta U+W>
0.930

> <U+W>
7.353

> <U>
8.455

> <W>
-1.102

> <W(PB)>
-3.101

> <W(SA)>
2.000

> <Valence>
15.601

> <Coulomb>
-10.573

> <VdW>
3.427

> <VdW6>
-11.360

> <VdW12>
14.787

> <Bond>
0.471

> <Angle>
5.445

> <Pdih>
9.685

> <Idih>
0.000

> <Tether>
0.000

$$$$
VeraChem MOL file


 22 22  0  0  0  0  0  0  0  0999 V2000     
   20.4390   17.8764   22.4888 C   0  0  0  0  0  0  0  0  0  0  0  0
   21.0180   18.1668   21.6027 H   0  0  0  0  0  0  0  0  0  0  0  0
   20.6205   16.7995   22.6076 H   0  0  0  0  0  0  0  0  0  0  0  0
   18.9280   18.0954   22.2223 C   0  0  0  0  0  0  0  0  0  0  0  0
   18.6535   17.4832   21.3523 H   0  0  0  0  0  0  0  0  0  0  0  0
   18.3446   17.6960   23.0630 H   0  0  0  0  0  0  0  0  0  0  0  0
   18.4851   19.5584   21.9429 C   0  0  0  0  0  0  0  0  0  0  0  0
   17.9996   19.9810   22.8322 H   0  0  0  0  0  0  0  0  0  0  0  0
   17.6998   19.5379   21.1751 H   0  0  0  0  0  0  0  0  0  0  0  0
   19.6171   20.5089   21.4708 C   0  0  0  0  0  0  0  0  0  0  0  0
   20.1400   20.0518   20.6215 H   0  0  0  0  0  0  0  0  0  0  0  0
   19.1559   21.4179   21.0615 H   0  0  0  0  0  0  0  0  0  0  0  0
   20.6590   20.9161   22.5536 C   0  0  0  0  0  0  0  0  0  0  0  0
   21.6618   20.8136   22.1143 H   0  0  0  0  0  0  0  0  0  0  0  0
   20.6223   20.0994   23.8695 C   0  0  0  0  0  0  0  0  0  0  0  0
   21.3122   20.5563   24.5909 H   0  0  0  0  0  0  0  0  0  0  0  0
   19.6306   20.1853   24.3297 H   0  0  0  0  0  0  0  0  0  0  0  0
   21.0004   18.6033   23.7334 C   0  0  0  0  0  0  0  0  0  0  0  0
   22.0951   18.5134   23.7166 H   0  0  0  0  0  0  0  0  0  0  0  0
   20.6687   18.0765   24.6385 H   0  0  0  0  0  0  0  0  0  0  0  0
   20.4458   22.2815   22.8932 O   0  0  0  0  0  0  0  0  0  0  0  0
   21.1481   22.5272   23.5308 H   0  0  0  0  0  0  0  0  0  0  0  0
  1  2  1  0  0  0  0
  1  3  1  0  0  0  0
  1  4  1  0  0  0  0
  4  5  1  0  0  0  0
  4  6  1  0  0  0  0
  4  7  1  0  0  0  0
  7  8  1  0  0  0  0
  7  9  1  0  0  0  0
  7 10  1  0  0  0  0
 10 11  1  0  0  0  0
 10 12  1  0  0  0  0
 10 13  1  0  0  0  0
 13 14  1  0  0  0  0
 13 15  1  0  0  0  0
 15 16  1  0  0  0  0
 15 17  1  0  0  0  0
  1 18  1  0  0  0  0
 15 18  1  0  0  0  0
 18 19  1  0  0  0  0
 18 20  1  0  0  0  0
 13 21  1  0  0  0  0
 21 22  1  0  0  0  0
M  END
> <VConfSearch Rank>
777

> <Conf_Id>
141

> <Delta U+W>
0.000

> <U+W>
6.423

> <U>
8.781

> <W>
-2.358

> <W(PB)>
-4.373

> <W(SA)>
2.015

> <Valence>
13.328

> <Coulomb>
-8.387

> <VdW>
3.840

> <VdW6>
-9.744

> <VdW12>
13.584

> <Bond>
0.436

> <Angle>
3.478

> <Pdih>
9.415

> <Idih>
0.000

> <Tether>
0.000

$$$$
VeraChem MOL file


 22 22  0  0  0  0  0  0  0  0999 V2000     
   20.2934   20.6805   24.0072 C   0  0  0  0  0  0  0  0  0  0  0  0
   19.5696   20.1046   24.5997 H   0  0  0  0  0  0  0  0  0  0  0  0
   20.7050   21.4403   24.6856 H   0  0  0  0  0  0  0  0  0  0  0  0
   19.5915   21.4211   22.8433 C   0  0  0  0  0  0  0  0  0  0  0  0
   18.9556   22.2117   23.2645 H   0  0  0  0  0  0  0  0  0  0  0  0
   20.3450   21.9376   22.2332 H   0  0  0  0  0  0  0  0  0  0  0  0
   18.7153   20.5331   21.9300 C   0  0  0  0  0  0  0  0  0  0  0  0
   18.3315   21.1575   21.1116 H   0  0  0  0  0  0  0  0  0  0  0  0
   17.8317   20.1951   22.4886 H   0  0  0  0  0  0  0  0  0  0  0  0
   19.4390   19.3082   21.3194 C   0  0  0  0  0  0  0  0  0  0  0  0
   18.7957   18.9034   20.5271 H   0  0  0  0  0  0  0  0  0  0  0  0
   20.3719   19.6145   20.8287 H   0  0  0  0  0  0  0  0  0  0  0  0
   19.7133   18.1982   22.3588 C   0  0  0  0  0  0  0  0  0  0  0  0
   18.8967   18.2066   23.0949 H   0  0  0  0  0  0  0  0  0  0  0  0
   21.0518   18.3460   23.1178 C   0  0  0  0  0  0  0  0  0  0  0  0
   20.9922   17.7223   24.0190 H   0  0  0  0  0  0  0  0  0  0  0  0
   21.8625   17.9209   22.5109 H   0  0  0  0  0  0  0  0  0  0  0  0
   21.4593   19.7819   23.5326 C   0  0  0  0  0  0  0  0  0  0  0  0
   22.2012   19.7046   24.3392 H   0  0  0  0  0  0  0  0  0  0  0  0
   21.9814   20.2711   22.6990 H   0  0  0  0  0  0  0  0  0  0  0  0
   19.7196   16.9401   21.6951 O   0  0  0  0  0  0  0  0  0  0  0  0
   18.8361   16.8331   21.2846 H   0  0  0  0  0  0  0  0  0  0  0  0
  1  2  1  0  0  0  0
  1  3  1  0  0  0  0
  1  4  1  0  0  0  0
  4  5  1  0  0  0  0
  4  6  1  0  0  0  0
  4  7  1  0  0  0  0
  7  8  1  0  0  0  0
  7  9  1  0  0  0  0
  7 10  1  0  0  0  0
 10 11  1  0  0  0  0
 10 12  1  0  0  0  0
 10 13  1  0  0  0  0
 13 14  1  0  0  0  0
 13 15  1  0  0  0  0
 15 16  1  0  0  0  0
 15 17  1  0  0  0  0
  1 18  1  0  0  0  0
 15 18  1  0  0  0  0
 18 19  1  0  0  0  0
 18 20  1  0  0  0  0
 13 21  1  0  0  0  0
 21 22  1  0  0  0  0
M  END
> <VConfSearch Rank>
778

> <Conf_Id>
144

> <Delta U+W>
-3.291

> <U+W>
3.132

> <U>
5.411

> <W>
-2.279

> <W(PB)>
-4.300

> <W(SA)>
2.021

> <Valence>
11.909

> <Coulomb>
-8.733

> <VdW>
2.236

> <VdW6>
-8.936

> <VdW12>
11.172

> <Bond>
0.223

> <Angle>
2.457

> <Pdih>
9.228

> <Idih>
0.000

> <Tether>
0.000

$$$$
VeraChem MOL file


 22 22  0  0  0  0  0  0  0  0999 V2000     
   20.4664   19.7056   21.0094 C   0  0  0  0  0  0  0  0  0  0  0  0
   21.0631   19.7412   20.0877 H   0  0  0  0  0  0  0  0  0  0  0  0
   19.4293   19.9060   20.7078 H   0  0  0  0  0  0  0  0  0  0  0  0
   20.9871   20.8095   21.9593 C   0  0  0  0  0  0  0  0  0  0  0  0
   21.8711   20.4414   22.4977 H   0  0  0  0  0  0  0  0  0  0  0  0
   21.3427   21.6573   21.3577 H   0  0  0  0  0  0  0  0  0  0  0  0
   19.9481   21.3470   22.9729 C   0  0  0  0  0  0  0  0  0  0  0  0
   19.3377   22.1185   22.4839 H   0  0  0  0  0  0  0  0  0  0  0  0
   20.4901   21.8617   23.7782 H   0  0  0  0  0  0  0  0  0  0  0  0
   18.9927   20.3004   23.5973 C   0  0  0  0  0  0  0  0  0  0  0  0
   18.5608   20.7401   24.5065 H   0  0  0  0  0  0  0  0  0  0  0  0
   18.1475   20.1330   22.9172 H   0  0  0  0  0  0  0  0  0  0  0  0
   19.6478   18.9439   23.9416 C   0  0  0  0  0  0  0  0  0  0  0  0
   20.6862   19.1075   24.2631 H   0  0  0  0  0  0  0  0  0  0  0  0
   19.6223   17.9552   22.7538 C   0  0  0  0  0  0  0  0  0  0  0  0
   19.8615   16.9505   23.1274 H   0  0  0  0  0  0  0  0  0  0  0  0
   18.6033   17.8939   22.3500 H   0  0  0  0  0  0  0  0  0  0  0  0
   20.6044   18.2837   21.6045 C   0  0  0  0  0  0  0  0  0  0  0  0
   21.6355   18.1323   21.9523 H   0  0  0  0  0  0  0  0  0  0  0  0
   20.4493   17.5511   20.8007 H   0  0  0  0  0  0  0  0  0  0  0  0
   18.9224   18.3568   25.0136 O   0  0  0  0  0  0  0  0  0  0  0  0
   18.0067   18.2289   24.6907 H   0  0  0  0  0  0  0  0  0  0  0  0
  1  2  1  0  0  0  0
  1  3  1  0  0  0  0
  1  4  1  0  0  0  0
  4  5  1  0  0  0  0
  4  6  1  0  0  0  0
  4  7  1  0  0  0  0
  7  8  1  0  0  0  0
  7  9  1  0  0  0  0
  7 10  1  0  0  0  0
 10 11  1  0  0  0  0
 10 12  1  0  0  0  0
 10 13  1  0  0  0  0
 13 14  1  0  0  0  0
 13 15  1  0  0  0  0
 15 16  1  0  0  0  0
 15 17  1  0  0  0  0
  1 18  1  0  0  0  0
 15 18  1  0  0  0  0
 18 19  1  0  0  0  0
 18 20  1  0  0  0  0
 13 21  1  0  0  0  0
 21 22  1  0  0  0  0
M  END
> <VConfSearch Rank>
779

> <Conf_Id>
76

> <Delta U+W>
-3.175

> <U+W>
3.248

> <U>
5.336

> <W>
-2.088

> <W(PB)>
-4.098

> <W(SA)>
2.010

> <Valence>
12.390

> <Coulomb>
-9.270

> <VdW>
2.216

> <VdW6>
-8.967

> <VdW12>
11.183

> <Bond>
0.218

> <Angle>
2.426

> <Pdih>
9.745

> <Idih>
0.000

> <Tether>
0.000

$$$$
VeraChem MOL file


 22 22  0  0  0  0  0  0  0  0999 V2000     
   18.5537   19.0944   23.6913 C   0  0  0  0  0  0  0  0  0  0  0  0
   17.6068   19.6473   23.7587 H   0  0  0  0  0  0  0  0  0  0  0  0
   18.4016   18.1716   24.2676 H   0  0  0  0  0  0  0  0  0  0  0  0
   19.6561   19.9372   24.3762 C   0  0  0  0  0  0  0  0  0  0  0  0
   19.4793   21.0030   24.1775 H   0  0  0  0  0  0  0  0  0  0  0  0
   19.5475   19.8193   25.4630 H   0  0  0  0  0  0  0  0  0  0  0  0
   21.1038   19.5721   23.9736 C   0  0  0  0  0  0  0  0  0  0  0  0
   21.2127   18.4875   23.8367 H   0  0  0  0  0  0  0  0  0  0  0  0
   21.7677   19.8422   24.8058 H   0  0  0  0  0  0  0  0  0  0  0  0
   21.5882   20.3376   22.7160 C   0  0  0  0  0  0  0  0  0  0  0  0
   21.4011   21.4104   22.8524 H   0  0  0  0  0  0  0  0  0  0  0  0
   22.6788   20.2357   22.6424 H   0  0  0  0  0  0  0  0  0  0  0  0
   20.9762   19.8932   21.3680 C   0  0  0  0  0  0  0  0  0  0  0  0
   21.2782   20.6413   20.6208 H   0  0  0  0  0  0  0  0  0  0  0  0
   19.4289   19.8189   21.3391 C   0  0  0  0  0  0  0  0  0  0  0  0
   19.0045   20.7929   21.6149 H   0  0  0  0  0  0  0  0  0  0  0  0
   19.1251   19.6478   20.2983 H   0  0  0  0  0  0  0  0  0  0  0  0
   18.8063   18.7016   22.2162 C   0  0  0  0  0  0  0  0  0  0  0  0
   17.8447   18.4025   21.7776 H   0  0  0  0  0  0  0  0  0  0  0  0
   19.4340   17.8015   22.1814 H   0  0  0  0  0  0  0  0  0  0  0  0
   21.5338   18.6386   20.9899 O   0  0  0  0  0  0  0  0  0  0  0  0
   21.0834   18.3711   20.1629 H   0  0  0  0  0  0  0  0  0  0  0  0
  1  2  1  0  0  0  0
  1  3  1  0  0  0  0
  1  4  1  0  0  0  0
  4  5  1  0  0  0  0
  4  6  1  0  0  0  0
  4  7  1  0  0  0  0
  7  8  1  0  0  0  0
  7  9  1  0  0  0  0
  7 10  1  0  0  0  0
 10 11  1  0  0  0  0
 10 12  1  0  0  0  0
 10 13  1  0  0  0  0
 13 14  1  0  0  0  0
 13 15  1  0  0  0  0
 15 16  1  0  0  0  0
 15 17  1  0  0  0  0
  1 18  1  0  0  0  0
 15 18  1  0  0  0  0
 18 19  1  0  0  0  0
 18 20  1  0  0  0  0
 13 21  1  0  0  0  0
 21 22  1  0  0  0  0
M  END
> <VConfSearch Rank>
780

> <Conf_Id>
95

> <Delta U+W>
-2.289

> <U+W>
4.134

> <U>
6.373

> <W>
-2.240

> <W(PB)>
-4.254

> <W(SA)>
2.015

> <Valence>
12.093

> <Coulomb>
-8.058

> <VdW>
2.339

> <VdW6>
-9.683

> <VdW12>
12.022

> <Bond>
0.268

> <Angle>
3.005

> <Pdih>
8.820

> <Idih>
0.000

> <Tether>
0.000

$$$$
VeraChem MOL file


 22 22  0  0  0  0  0  0  0  0999 V2000     
   18.9346   18.0863   22.9117 C   0  0  0  0  0  0  0  0  0  0  0  0
   18.0874   17.9499   23.5976 H   0  0  0  0  0  0  0  0  0  0  0  0
   18.9964   17.1587   22.3265 H   0  0  0  0  0  0  0  0  0  0  0  0
   20.2227   18.2325   23.7566 C   0  0  0  0  0  0  0  0  0  0  0  0
   19.9957   18.7878   24.6767 H   0  0  0  0  0  0  0  0  0  0  0  0
   20.5274   17.2300   24.0868 H   0  0  0  0  0  0  0  0  0  0  0  0
   21.4107   18.9043   23.0294 C   0  0  0  0  0  0  0  0  0  0  0  0
   21.4507   18.5978   21.9753 H   0  0  0  0  0  0  0  0  0  0  0  0
   22.3401   18.5406   23.4882 H   0  0  0  0  0  0  0  0  0  0  0  0
   21.3936   20.4485   23.1576 C   0  0  0  0  0  0  0  0  0  0  0  0
   21.2667   20.7197   24.2136 H   0  0  0  0  0  0  0  0  0  0  0  0
   22.3812   20.8351   22.8746 H   0  0  0  0  0  0  0  0  0  0  0  0
   20.3232   21.1902   22.3245 C   0  0  0  0  0  0  0  0  0  0  0  0
   20.3304   22.2378   22.6586 H   0  0  0  0  0  0  0  0  0  0  0  0
   18.8752   20.6677   22.4992 C   0  0  0  0  0  0  0  0  0  0  0  0
   18.5848   20.7151   23.5565 H   0  0  0  0  0  0  0  0  0  0  0  0
   18.2124   21.3679   21.9745 H   0  0  0  0  0  0  0  0  0  0  0  0
   18.6150   19.2455   21.9378 C   0  0  0  0  0  0  0  0  0  0  0  0
   17.5567   19.1664   21.6550 H   0  0  0  0  0  0  0  0  0  0  0  0
   19.1756   19.1044   21.0043 H   0  0  0  0  0  0  0  0  0  0  0  0
   20.6915   21.1608   20.9488 O   0  0  0  0  0  0  0  0  0  0  0  0
   21.6145   21.4826   20.8977 H   0  0  0  0  0  0  0  0  0  0  0  0
  1  2  1  0  0  0  0
  1  3  1  0  0  0  0
  1  4  1  0  0  0  0
  4  5  1  0  0  0  0
  4  6  1  0  0  0  0
  4  7  1  0  0  0  0
  7  8  1  0  0  0  0
  7  9  1  0  0  0  0
  7 10  1  0  0  0  0
 10 11  1  0  0  0  0
 10 12  1  0  0  0  0
 10 13  1  0  0  0  0
 13 14  1  0  0  0  0
 13 15  1  0  0  0  0
 15 16  1  0  0  0  0
 15 17  1  0  0  0  0
  1 18  1  0  0  0  0
 15 18  1  0  0  0  0
 18 19  1  0  0  0  0
 18 20  1  0  0  0  0
 13 21  1  0  0  0  0
 21 22  1  0  0  0  0
M  END
> <VConfSearch Rank>
781

> <Conf_Id>
41

> <Delta U+W>
-2.114

> <U+W>
4.310

> <U>
6.598

> <W>
-2.289

> <W(PB)>
-4.294

> <W(SA)>
2.005

> <Valence>
12.082

> <Coulomb>
-7.801

> <VdW>
2.317

> <VdW6>
-9.658

> <VdW12>
11.975

> <Bond>
0.267

> <Angle>
3.051

> <Pdih>
8.764

> <Idih>
0.000

> <Tether>
0.000

$$$$
VeraChem MOL file


 22 22  0  0  0  0  0  0  0  0999 V2000     
   21.4691   20.2537   23.3069 C   0  0  0  0  0  0  0  0  0  0  0  0
   22.2246   20.9334   23.7237 H   0  0  0  0  0  0  0  0  0  0  0  0
   21.8557   19.2359   23.4543 H   0  0  0  0  0  0  0  0  0  0  0  0
   21.3252   20.5709   21.8016 C   0  0  0  0  0  0  0  0  0  0  0  0
   20.8797   21.5672   21.6769 H   0  0  0  0  0  0  0  0  0  0  0  0
   22.3284   20.6320   21.3585 H   0  0  0  0  0  0  0  0  0  0  0  0
   20.5051   19.5359   21.0007 C   0  0  0  0  0  0  0  0  0  0  0  0
   21.0610   18.5903   20.9489 H   0  0  0  0  0  0  0  0  0  0  0  0
   20.4322   19.8911   19.9640 H   0  0  0  0  0  0  0  0  0  0  0  0
   19.0685   19.2791   21.5311 C   0  0  0  0  0  0  0  0  0  0  0  0
   18.5376   20.2312   21.6568 H   0  0  0  0  0  0  0  0  0  0  0  0
   18.5195   18.7343   20.7524 H   0  0  0  0  0  0  0  0  0  0  0  0
   18.9647   18.4429   22.8327 C   0  0  0  0  0  0  0  0  0  0  0  0
   17.9270   18.0844   22.8952 H   0  0  0  0  0  0  0  0  0  0  0  0
   19.2363   19.2096   24.1531 C   0  0  0  0  0  0  0  0  0  0  0  0
   18.2700   19.5305   24.5633 H   0  0  0  0  0  0  0  0  0  0  0  0
   19.6462   18.5112   24.8945 H   0  0  0  0  0  0  0  0  0  0  0  0
   20.1522   20.4569   24.0882 C   0  0  0  0  0  0  0  0  0  0  0  0
   19.5971   21.3058   23.6668 H   0  0  0  0  0  0  0  0  0  0  0  0
   20.3967   20.7478   25.1189 H   0  0  0  0  0  0  0  0  0  0  0  0
   19.8119   17.2993   22.7591 O   0  0  0  0  0  0  0  0  0  0  0  0
   19.6751   16.7925   23.5852 H   0  0  0  0  0  0  0  0  0  0  0  0
  1  2  1  0  0  0  0
  1  3  1  0  0  0  0
  1  4  1  0  0  0  0
  4  5  1  0  0  0  0
  4  6  1  0  0  0  0
  4  7  1  0  0  0  0
  7  8  1  0  0  0  0
  7  9  1  0  0  0  0
  7 10  1  0  0  0  0
 10 11  1  0  0  0  0
 10 12  1  0  0  0  0
 10 13  1  0  0  0  0
 13 14  1  0  0  0  0
 13 15  1  0  0  0  0
 15 16  1  0  0  0  0
 15 17  1  0  0  0  0
  1 18  1  0  0  0  0
 15 18  1  0  0  0  0
 18 19  1  0  0  0  0
 18 20  1  0  0  0  0
 13 21  1  0  0  0  0
 21 22  1  0  0  0  0
M  END
> <VConfSearch Rank>
782

> <Conf_Id>
104

> <Delta U+W>
-1.172

> <U+W>
5.252

> <U>
7.482

> <W>
-2.230

> <W(PB)>
-4.220

> <W(SA)>
1.990

> <Valence>
12.309

> <Coulomb>
-7.084

> <VdW>
2.258

> <VdW6>
-9.770

> <VdW12>
12.028

> <Bond>
0.284

> <Angle>
3.491

> <Pdih>
8.535

> <Idih>
0.000

> <Tether>
0.000

$$$$
VeraChem MOL file


 22 22  0  0  0  0  0  0  0  0999 V2000     
   19.0595   20.7681   23.2200 C   0  0  0  0  0  0  0  0  0  0  0  0
   18.9386   20.2944   24.2036 H   0  0  0  0  0  0  0  0  0  0  0  0
   18.4332   21.6705   23.2402 H   0  0  0  0  0  0  0  0  0  0  0  0
   18.5288   19.8495   22.0958 C   0  0  0  0  0  0  0  0  0  0  0  0
   17.4338   19.9335   22.0623 H   0  0  0  0  0  0  0  0  0  0  0  0
   18.8724   20.2281   21.1242 H   0  0  0  0  0  0  0  0  0  0  0  0
   18.8827   18.3469   22.2332 C   0  0  0  0  0  0  0  0  0  0  0  0
   18.8712   17.8940   21.2322 H   0  0  0  0  0  0  0  0  0  0  0  0
   18.0751   17.8491   22.7872 H   0  0  0  0  0  0  0  0  0  0  0  0
   20.2204   17.9925   22.9374 C   0  0  0  0  0  0  0  0  0  0  0  0
   20.0863   18.0730   24.0239 H   0  0  0  0  0  0  0  0  0  0  0  0
   20.4304   16.9312   22.7515 H   0  0  0  0  0  0  0  0  0  0  0  0
   21.4689   18.8079   22.5296 C   0  0  0  0  0  0  0  0  0  0  0  0
   22.3517   18.2064   22.7897 H   0  0  0  0  0  0  0  0  0  0  0  0
   21.5935   20.1410   23.3013 C   0  0  0  0  0  0  0  0  0  0  0  0
   21.5866   19.9261   24.3778 H   0  0  0  0  0  0  0  0  0  0  0  0
   22.5835   20.5666   23.0914 H   0  0  0  0  0  0  0  0  0  0  0  0
   20.5230   21.2184   22.9978 C   0  0  0  0  0  0  0  0  0  0  0  0
   20.7207   22.0814   23.6480 H   0  0  0  0  0  0  0  0  0  0  0  0
   20.6473   21.5881   21.9710 H   0  0  0  0  0  0  0  0  0  0  0  0
   21.4714   19.0500   21.1312 O   0  0  0  0  0  0  0  0  0  0  0  0
   20.6245   19.5107   20.9673 H   0  0  0  0  0  0  0  0  0  0  0  0
  1  2  1  0  0  0  0
  1  3  1  0  0  0  0
  1  4  1  0  0  0  0
  4  5  1  0  0  0  0
  4  6  1  0  0  0  0
  4  7  1  0  0  0  0
  7  8  1  0  0  0  0
  7  9  1  0  0  0  0
  7 10  1  0  0  0  0
 10 11  1  0  0  0  0
 10 12  1  0  0  0  0
 10 13  1  0  0  0  0
 13 14  1  0  0  0  0
 13 15  1  0  0  0  0
 15 16  1  0  0  0  0
 15 17  1  0  0  0  0
  1 18  1  0  0  0  0
 15 18  1  0  0  0  0
 18 19  1  0  0  0  0
 18 20  1  0  0  0  0
 13 21  1  0  0  0  0
 21 22  1  0  0  0  0
M  END
> <VConfSearch Rank>
783

> <Conf_Id>
99

> <Delta U+W>
-3.852

> <U+W>
2.572

> <U>
3.922

> <W>
-1.350

> <W(PB)>
-3.345

> <W(SA)>
1.995

> <Valence>
12.571

> <Coulomb>
-10.581

> <VdW>
1.932

> <VdW6>
-10.483

> <VdW12>
12.415

> <Bond>
0.268

> <Angle>
3.728

> <Pdih>
8.575

> <Idih>
0.000

> <Tether>
0.000

$$$$
VeraChem MOL file


 22 22  0  0  0  0  0  0  0  0999 V2000     
   19.8670   19.2336   24.2918 C   0  0  0  0  0  0  0  0  0  0  0  0
   19.2320   19.0192   25.1625 H   0  0  0  0  0  0  0  0  0  0  0  0
   20.8963   19.1647   24.6684 H   0  0  0  0  0  0  0  0  0  0  0  0
   19.5627   20.6874   23.8253 C   0  0  0  0  0  0  0  0  0  0  0  0
   18.7961   21.1024   24.4941 H   0  0  0  0  0  0  0  0  0  0  0  0
   20.4441   21.3252   23.9750 H   0  0  0  0  0  0  0  0  0  0  0  0
   19.0525   20.8406   22.3697 C   0  0  0  0  0  0  0  0  0  0  0  0
   18.6955   21.8707   22.2343 H   0  0  0  0  0  0  0  0  0  0  0  0
   18.1610   20.2184   22.2223 H   0  0  0  0  0  0  0  0  0  0  0  0
   20.0889   20.5459   21.2499 C   0  0  0  0  0  0  0  0  0  0  0  0
   19.5407   20.3025   20.3307 H   0  0  0  0  0  0  0  0  0  0  0  0
   20.6317   21.4741   21.0268 H   0  0  0  0  0  0  0  0  0  0  0  0
   21.1419   19.4384   21.5002 C   0  0  0  0  0  0  0  0  0  0  0  0
   21.6205   19.2282   20.5330 H   0  0  0  0  0  0  0  0  0  0  0  0
   20.6034   18.0898   22.0382 C   0  0  0  0  0  0  0  0  0  0  0  0
   20.1162   17.5560   21.2120 H   0  0  0  0  0  0  0  0  0  0  0  0
   21.4699   17.4728   22.3112 H   0  0  0  0  0  0  0  0  0  0  0  0
   19.6224   18.1187   23.2430 C   0  0  0  0  0  0  0  0  0  0  0  0
   18.5893   18.1737   22.8782 H   0  0  0  0  0  0  0  0  0  0  0  0
   19.6846   17.1463   23.7503 H   0  0  0  0  0  0  0  0  0  0  0  0
   22.1511   19.9286   22.3690 O   0  0  0  0  0  0  0  0  0  0  0  0
   21.6782   20.0988   23.2082 H   0  0  0  0  0  0  0  0  0  0  0  0
  1  2  1  0  0  0  0
  1  3  1  0  0  0  0
  1  4  1  0  0  0  0
  4  5  1  0  0  0  0
  4  6  1  0  0  0  0
  4  7  1  0  0  0  0
  7  8  1  0  0  0  0
  7  9  1  0  0  0  0
  7 10  1  0  0  0  0
 10 11  1  0  0  0  0
 10 12  1  0  0  0  0
 10 13  1  0  0  0  0
 13 14  1  0  0  0  0
 13 15  1  0  0  0  0
 15 16  1  0  0  0  0
 15 17  1  0  0  0  0
  1 18  1  0  0  0  0
 15 18  1  0  0  0  0
 18 19  1  0  0  0  0
 18 20  1  0  0  0  0
 13 21  1  0  0  0  0
 21 22  1  0  0  0  0
M  END
> <VConfSearch Rank>
784

> <Conf_Id>
98

> <Delta U+W>
0.930

> <U+W>
7.353

> <U>
8.455

> <W>
-1.102

> <W(PB)>
-3.101

> <W(SA)>
2.000

> <Valence>
15.601

> <Coulomb>
-10.573

> <VdW>
3.427

> <VdW6>
-11.360

> <VdW12>
14.787

> <Bond>
0.471

> <Angle>
5.445

> <Pdih>
9.685

> <Idih>
0.000

> <Tether>
0.000

$$$$
VeraChem MOL file


 22 22  0  0  0  0  0  0  0  0999 V2000     
   21.0607   18.2428   22.2131 C   0  0  0  0  0  0  0  0  0  0  0  0
   21.1936   18.7495   21.2485 H   0  0  0  0  0  0  0  0  0  0  0  0
   21.7201   17.3654   22.1675 H   0  0  0  0  0  0  0  0  0  0  0  0
   19.5967   17.7531   22.3504 C   0  0  0  0  0  0  0  0  0  0  0  0
   19.3968   17.0697   21.5138 H   0  0  0  0  0  0  0  0  0  0  0  0
   19.4957   17.1465   23.2606 H   0  0  0  0  0  0  0  0  0  0  0  0
   18.5009   18.8549   22.3469 C   0  0  0  0  0  0  0  0  0  0  0  0
   18.1368   19.0268   23.3682 H   0  0  0  0  0  0  0  0  0  0  0  0
   17.6307   18.4708   21.7975 H   0  0  0  0  0  0  0  0  0  0  0  0
   18.9299   20.2062   21.7164 C   0  0  0  0  0  0  0  0  0  0  0  0
   19.3519   20.0210   20.7209 H   0  0  0  0  0  0  0  0  0  0  0  0
   18.0265   20.8033   21.5327 H   0  0  0  0  0  0  0  0  0  0  0  0
   19.9352   21.0560   22.5479 C   0  0  0  0  0  0  0  0  0  0  0  0
   20.7233   21.4098   21.8677 H   0  0  0  0  0  0  0  0  0  0  0  0
   20.6132   20.3306   23.7371 C   0  0  0  0  0  0  0  0  0  0  0  0
   21.1979   21.0605   24.3120 H   0  0  0  0  0  0  0  0  0  0  0  0
   19.8474   19.9673   24.4330 H   0  0  0  0  0  0  0  0  0  0  0  0
   21.5568   19.1637   23.3527 C   0  0  0  0  0  0  0  0  0  0  0  0
   22.5312   19.5768   23.0584 H   0  0  0  0  0  0  0  0  0  0  0  0
   21.7448   18.5580   24.2495 H   0  0  0  0  0  0  0  0  0  0  0  0
   19.2447   22.1837   23.0739 O   0  0  0  0  0  0  0  0  0  0  0  0
   19.9103   22.7293   23.5424 H   0  0  0  0  0  0  0  0  0  0  0  0
  1  2  1  0  0  0  0
  1  3  1  0  0  0  0
  1  4  1  0  0  0  0
  4  5  1  0  0  0  0
  4  6  1  0  0  0  0
  4  7  1  0  0  0  0
  7  8  1  0  0  0  0
  7  9  1  0  0  0  0
  7 10  1  0  0  0  0
 10 11  1  0  0  0  0
 10 12  1  0  0  0  0
 10 13  1  0  0  0  0
 13 14  1  0  0  0  0
 13 15  1  0  0  0  0
 15 16  1  0  0  0  0
 15 17  1  0  0  0  0
  1 18  1  0  0  0  0
 15 18  1  0  0  0  0
 18 19  1  0  0  0  0
 18 20  1  0  0  0  0
 13 21  1  0  0  0  0
 21 22  1  0  0  0  0
M  END
> <VConfSearch Rank>
785

> <Conf_Id>
141

> <Delta U+W>
0.000

> <U+W>
6.423

> <U>
8.781

> <W>
-2.358

> <W(PB)>
-4.373

> <W(SA)>
2.015

> <Valence>
13.328

> <Coulomb>
-8.387

> <VdW>
3.840

> <VdW6>
-9.744

> <VdW12>
13.584

> <Bond>
0.436

> <Angle>
3.478

> <Pdih>
9.415

> <Idih>
0.000

> <Tether>
0.000

$$$$
VeraChem MOL file


 22 22  0  0  0  0  0  0  0  0999 V2000     
   21.4429   19.6988   21.6973 C   0  0  0  0  0  0  0  0  0  0  0  0
   21.0968   18.8212   21.1345 H   0  0  0  0  0  0  0  0  0  0  0  0
   22.3855   20.0093   21.2263 H   0  0  0  0  0  0  0  0  0  0  0  0
   21.7529   19.3265   23.1674 C   0  0  0  0  0  0  0  0  0  0  0  0
   22.6384   18.6766   23.1845 H   0  0  0  0  0  0  0  0  0  0  0  0
   22.0369   20.2324   23.7202 H   0  0  0  0  0  0  0  0  0  0  0  0
   20.6109   18.6054   23.9198 C   0  0  0  0  0  0  0  0  0  0  0  0
   20.9266   18.4584   24.9617 H   0  0  0  0  0  0  0  0  0  0  0  0
   20.4779   17.5980   23.5021 H   0  0  0  0  0  0  0  0  0  0  0  0
   19.2528   19.3489   23.9152 C   0  0  0  0  0  0  0  0  0  0  0  0
   18.6069   18.8649   24.6595 H   0  0  0  0  0  0  0  0  0  0  0  0
   19.3786   20.3871   24.2489 H   0  0  0  0  0  0  0  0  0  0  0  0
   18.5528   19.3040   22.5384 C   0  0  0  0  0  0  0  0  0  0  0  0
   18.8055   18.3495   22.0548 H   0  0  0  0  0  0  0  0  0  0  0  0
   18.9458   20.4519   21.5807 C   0  0  0  0  0  0  0  0  0  0  0  0
   18.6580   20.1495   20.5655 H   0  0  0  0  0  0  0  0  0  0  0  0
   18.3432   21.3405   21.8119 H   0  0  0  0  0  0  0  0  0  0  0  0
   20.4381   20.8678   21.5715 C   0  0  0  0  0  0  0  0  0  0  0  0
   20.6343   21.4076   20.6351 H   0  0  0  0  0  0  0  0  0  0  0  0
   20.6217   21.5951   22.3741 H   0  0  0  0  0  0  0  0  0  0  0  0
   17.1455   19.3586   22.7377 O   0  0  0  0  0  0  0  0  0  0  0  0
   16.9074   18.5804   23.2839 H   0  0  0  0  0  0  0  0  0  0  0  0
  1  2  1  0  0  0  0
  1  3  1  0  0  0  0
  1  4  1  0  0  0  0
  4  5  1  0  0  0  0
  4  6  1  0  0  0  0
  4  7  1  0  0  0  0
  7  8  1  0  0  0  0
  7  9  1  0  0  0  0
  7 10  1  0  0  0  0
 10 11  1  0  0  0  0
 10 12  1  0  0  0  0
 10 13  1  0  0  0  0
 13 14  1  0  0  0  0
 13 15  1  0  0  0  0
 15 16  1  0  0  0  0
 15 17  1  0  0  0  0
  1 18  1  0  0  0  0
 15 18  1  0  0  0  0
 18 19  1  0  0  0  0
 18 20  1  0  0  0  0
 13 21  1  0  0  0  0
 21 22  1  0  0  0  0
M  END
> <VConfSearch Rank>
786

> <Conf_Id>
144

> <Delta U+W>
-3.291

> <U+W>
3.132

> <U>
5.411

> <W>
-2.279

> <W(PB)>
-4.300

> <W(SA)>
2.021

> <Valence>
11.909

> <Coulomb>
-8.733

> <VdW>
2.236

> <VdW6>
-8.936

> <VdW12>
11.172

> <Bond>
0.223

> <Angle>
2.457

> <Pdih>
9.228

> <Idih>
0.000

> <Tether>
0.000

$$$$
VeraChem MOL file


 22 22  0  0  0  0  0  0  0  0999 V2000     
   18.4376   20.3986   22.8299 C   0  0  0  0  0  0  0  0  0  0  0  0
   17.5379   20.8870   23.2288 H   0  0  0  0  0  0  0  0  0  0  0  0
   18.3867   20.5128   21.7385 H   0  0  0  0  0  0  0  0  0  0  0  0
   18.3890   18.9056   23.2307 C   0  0  0  0  0  0  0  0  0  0  0  0
   18.7617   18.7905   24.2577 H   0  0  0  0  0  0  0  0  0  0  0  0
   17.3402   18.5799   23.2616 H   0  0  0  0  0  0  0  0  0  0  0  0
   19.1579   17.9478   22.2888 C   0  0  0  0  0  0  0  0  0  0  0  0
   18.5147   17.6932   21.4353 H   0  0  0  0  0  0  0  0  0  0  0  0
   19.3288   17.0044   22.8252 H   0  0  0  0  0  0  0  0  0  0  0  0
   20.5090   18.4655   21.7367 C   0  0  0  0  0  0  0  0  0  0  0  0
   21.0803   17.5981   21.3795 H   0  0  0  0  0  0  0  0  0  0  0  0
   20.3224   19.0848   20.8497 H   0  0  0  0  0  0  0  0  0  0  0  0
   21.3624   19.2645   22.7471 C   0  0  0  0  0  0  0  0  0  0  0  0
   21.2202   18.8523   23.7562 H   0  0  0  0  0  0  0  0  0  0  0  0
   21.0210   20.7719   22.7497 C   0  0  0  0  0  0  0  0  0  0  0  0
   21.8144   21.3113   23.2842 H   0  0  0  0  0  0  0  0  0  0  0  0
   21.0357   21.1527   21.7202 H   0  0  0  0  0  0  0  0  0  0  0  0
   19.6688   21.1380   23.4065 C   0  0  0  0  0  0  0  0  0  0  0  0
   19.7289   20.9575   24.4885 H   0  0  0  0  0  0  0  0  0  0  0  0
   19.5133   22.2194   23.2918 H   0  0  0  0  0  0  0  0  0  0  0  0
   22.7297   19.1275   22.3838 O   0  0  0  0  0  0  0  0  0  0  0  0
   22.8154   19.5023   21.4830 H   0  0  0  0  0  0  0  0  0  0  0  0
  1  2  1  0  0  0  0
  1  3  1  0  0  0  0
  1  4  1  0  0  0  0
  4  5  1  0  0  0  0
  4  6  1  0  0  0  0
  4  7  1  0  0  0  0
  7  8  1  0  0  0  0
  7  9  1  0  0  0  0
  7 10  1  0  0  0  0
 10 11  1  0  0  0  0
 10 12  1  0  0  0  0
 10 13  1  0  0  0  0
 13 14  1  0  0  0  0
 13 15  1  0  0  0  0
 15 16  1  0  0  0  0
 15 17  1  0  0  0  0
  1 18  1  0  0  0  0
 15 18  1  0  0  0  0
 18 19  1  0  0  0  0
 18 20  1  0  0  0  0
 13 21  1  0  0  0  0
 21 22  1  0  0  0  0
M  END
> <VConfSearch Rank>
787

> <Conf_Id>
76

> <Delta U+W>
-3.175

> <U+W>
3.248

> <U>
5.336

> <W>
-2.088

> <W(PB)>
-4.098

> <W(SA)>
2.010

> <Valence>
12.390

> <Coulomb>
-9.270

> <VdW>
2.216

> <VdW6>
-8.967

> <VdW12>
11.183

> <Bond>
0.218

> <Angle>
2.426

> <Pdih>
9.745

> <Idih>
0.000

> <Tether>
0.000

$$$$
VeraChem MOL file


 22 22  0  0  0  0  0  0  0  0999 V2000     
   20.6346   20.0854   24.3961 C   0  0  0  0  0  0  0  0  0  0  0  0
   21.1728   21.0051   24.6630 H   0  0  0  0  0  0  0  0  0  0  0  0
   20.4232   19.5771   25.3468 H   0  0  0  0  0  0  0  0  0  0  0  0
   21.5813   19.1981   23.5528 C   0  0  0  0  0  0  0  0  0  0  0  0
   22.1978   19.8340   22.9032 H   0  0  0  0  0  0  0  0  0  0  0  0
   22.2861   18.7073   24.2377 H   0  0  0  0  0  0  0  0  0  0  0  0
   20.8775   18.1186   22.6979 C   0  0  0  0  0  0  0  0  0  0  0  0
   20.0165   17.6934   23.2316 H   0  0  0  0  0  0  0  0  0  0  0  0
   21.5822   17.2897   22.5475 H   0  0  0  0  0  0  0  0  0  0  0  0
   20.4569   18.6399   21.3003 C   0  0  0  0  0  0  0  0  0  0  0  0
   21.3183   19.1225   20.8211 H   0  0  0  0  0  0  0  0  0  0  0  0
   20.2103   17.7791   20.6650 H   0  0  0  0  0  0  0  0  0  0  0  0
   19.2581   19.6151   21.2674 C   0  0  0  0  0  0  0  0  0  0  0  0
   19.2097   20.0236   20.2476 H   0  0  0  0  0  0  0  0  0  0  0  0
   19.3614   20.8196   22.2364 C   0  0  0  0  0  0  0  0  0  0  0  0
   20.2805   21.3838   22.0321 H   0  0  0  0  0  0  0  0  0  0  0  0
   18.5359   21.5042   22.0027 H   0  0  0  0  0  0  0  0  0  0  0  0
   19.2830   20.4616   23.7434 C   0  0  0  0  0  0  0  0  0  0  0  0
   18.8724   21.3212   24.2901 H   0  0  0  0  0  0  0  0  0  0  0  0
   18.5637   19.6471   23.9002 H   0  0  0  0  0  0  0  0  0  0  0  0
   18.0566   18.8910   21.5126 O   0  0  0  0  0  0  0  0  0  0  0  0
   17.3333   19.5503   21.5346 H   0  0  0  0  0  0  0  0  0  0  0  0
  1  2  1  0  0  0  0
  1  3  1  0  0  0  0
  1  4  1  0  0  0  0
  4  5  1  0  0  0  0
  4  6  1  0  0  0  0
  4  7  1  0  0  0  0
  7  8  1  0  0  0  0
  7  9  1  0  0  0  0
  7 10  1  0  0  0  0
 10 11  1  0  0  0  0
 10 12  1  0  0  0  0
 10 13  1  0  0  0  0
 13 14  1  0  0  0  0
 13 15  1  0  0  0  0
 15 16  1  0  0  0  0
 15 17  1  0  0  0  0
  1 18  1  0  0  0  0
 15 18  1  0  0  0  0
 18 19  1  0  0  0  0
 18 20  1  0  0  0  0
 13 21  1  0  0  0  0
 21 22  1  0  0  0  0
M  END
> <VConfSearch Rank>
788

> <Conf_Id>
95

> <Delta U+W>
-2.289

> <U+W>
4.134

> <U>
6.373

> <W>
-2.240

> <W(PB)>
-4.254

> <W(SA)>
2.015

> <Valence>
12.093

> <Coulomb>
-8.058

> <VdW>
2.339

> <VdW6>
-9.683

> <VdW12>
12.022

> <Bond>
0.268

> <Angle>
3.005

> <Pdih>
8.820

> <Idih>
0.000

> <Tether>
0.000

$$$$
VeraChem MOL file


 22 22  0  0  0  0  0  0  0  0999 V2000     
   21.4403   18.9695   23.8345 C   0  0  0  0  0  0  0  0  0  0  0  0
   21.7195   17.9239   24.0230 H   0  0  0  0  0  0  0  0  0  0  0  0
   22.1591   19.5767   24.4015 H   0  0  0  0  0  0  0  0  0  0  0  0
   20.0231   19.2033   24.4102 C   0  0  0  0  0  0  0  0  0  0  0  0
   19.4156   18.2998   24.2650 H   0  0  0  0  0  0  0  0  0  0  0  0
   20.1145   19.3234   25.4984 H   0  0  0  0  0  0  0  0  0  0  0  0
   19.2741   20.4260   23.8313 C   0  0  0  0  0  0  0  0  0  0  0  0
   19.9641   21.2624   23.6547 H   0  0  0  0  0  0  0  0  0  0  0  0
   18.5581   20.7757   24.5873 H   0  0  0  0  0  0  0  0  0  0  0  0
   18.4762   20.0850   22.5474 C   0  0  0  0  0  0  0  0  0  0  0  0
   17.8622   19.1941   22.7324 H   0  0  0  0  0  0  0  0  0  0  0  0
   17.7618   20.8954   22.3525 H   0  0  0  0  0  0  0  0  0  0  0  0
   19.3109   19.8532   21.2671 C   0  0  0  0  0  0  0  0  0  0  0  0
   18.6228   19.4557   20.5070 H   0  0  0  0  0  0  0  0  0  0  0  0
   20.4670   18.8320   21.4115 C   0  0  0  0  0  0  0  0  0  0  0  0
   20.0725   17.8645   21.7473 H   0  0  0  0  0  0  0  0  0  0  0  0
   20.8731   18.6578   20.4067 H   0  0  0  0  0  0  0  0  0  0  0  0
   21.6325   19.2809   22.3311 C   0  0  0  0  0  0  0  0  0  0  0  0
   22.5545   18.7850   21.9991 H   0  0  0  0  0  0  0  0  0  0  0  0
   21.8182   20.3552   22.2006 H   0  0  0  0  0  0  0  0  0  0  0  0
   19.8152   21.1006   20.7998 O   0  0  0  0  0  0  0  0  0  0  0  0
   19.0511   21.7098   20.7432 H   0  0  0  0  0  0  0  0  0  0  0  0
  1  2  1  0  0  0  0
  1  3  1  0  0  0  0
  1  4  1  0  0  0  0
  4  5  1  0  0  0  0
  4  6  1  0  0  0  0
  4  7  1  0  0  0  0
  7  8  1  0  0  0  0
  7  9  1  0  0  0  0
  7 10  1  0  0  0  0
 10 11  1  0  0  0  0
 10 12  1  0  0  0  0
 10 13  1  0  0  0  0
 13 14  1  0  0  0  0
 13 15  1  0  0  0  0
 15 16  1  0  0  0  0
 15 17  1  0  0  0  0
  1 18  1  0  0  0  0
 15 18  1  0  0  0  0
 18 19  1  0  0  0  0
 18 20  1  0  0  0  0
 13 21  1  0  0  0  0
 21 22  1  0  0  0  0
M  END
> <VConfSearch Rank>
789

> <Conf_Id>
41

> <Delta U+W>
-2.114

> <U+W>
4.310

> <U>
6.598

> <W>
-2.289

> <W(PB)>
-4.294

> <W(SA)>
2.005

> <Valence>
12.082

> <Coulomb>
-7.801

> <VdW>
2.317

> <VdW6>
-9.658

> <VdW12>
11.975

> <Bond>
0.267

> <Angle>
3.051

> <Pdih>
8.764

> <Idih>
0.000

> <Tether>
0.000

$$$$
VeraChem MOL file


 22 22  0  0  0  0  0  0  0  0999 V2000     
   19.4234   18.2463   23.5334 C   0  0  0  0  0  0  0  0  0  0  0  0
   18.7858   17.5590   24.1058 H   0  0  0  0  0  0  0  0  0  0  0  0
   20.1616   17.6206   23.0132 H   0  0  0  0  0  0  0  0  0  0  0  0
   20.1196   19.1931   24.5366 C   0  0  0  0  0  0  0  0  0  0  0  0
   19.3724   19.8517   24.9997 H   0  0  0  0  0  0  0  0  0  0  0  0
   20.5384   18.5911   25.3544 H   0  0  0  0  0  0  0  0  0  0  0  0
   21.2564   20.0472   23.9338 C   0  0  0  0  0  0  0  0  0  0  0  0
   22.0983   19.3962   23.6629 H   0  0  0  0  0  0  0  0  0  0  0  0
   21.6382   20.7081   24.7235 H   0  0  0  0  0  0  0  0  0  0  0  0
   20.8499   20.9234   22.7180 C   0  0  0  0  0  0  0  0  0  0  0  0
   19.9606   21.5179   22.9627 H   0  0  0  0  0  0  0  0  0  0  0  0
   21.6547   21.6502   22.5487 H   0  0  0  0  0  0  0  0  0  0  0  0
   20.6273   20.1691   21.3818 C   0  0  0  0  0  0  0  0  0  0  0  0
   20.6675   20.9240   20.5831 H   0  0  0  0  0  0  0  0  0  0  0  0
   19.2606   19.4522   21.2289 C   0  0  0  0  0  0  0  0  0  0  0  0
   18.5835   20.1258   20.6877 H   0  0  0  0  0  0  0  0  0  0  0  0
   19.3852   18.5808   20.5727 H   0  0  0  0  0  0  0  0  0  0  0  0
   18.5342   19.0001   22.5200 C   0  0  0  0  0  0  0  0  0  0  0  0
   18.0667   19.8661   23.0077 H   0  0  0  0  0  0  0  0  0  0  0  0
   17.7036   18.3442   22.2256 H   0  0  0  0  0  0  0  0  0  0  0  0
   21.6840   19.2412   21.1513 O   0  0  0  0  0  0  0  0  0  0  0  0
   21.5120   18.8272   20.2813 H   0  0  0  0  0  0  0  0  0  0  0  0
  1  2  1  0  0  0  0
  1  3  1  0  0  0  0
  1  4  1  0  0  0  0
  4  5  1  0  0  0  0
  4  6  1  0  0  0  0
  4  7  1  0  0  0  0
  7  8  1  0  0  0  0
  7  9  1  0  0  0  0
  7 10  1  0  0  0  0
 10 11  1  0  0  0  0
 10 12  1  0  0  0  0
 10 13  1  0  0  0  0
 13 14  1  0  0  0  0
 13 15  1  0  0  0  0
 15 16  1  0  0  0  0
 15 17  1  0  0  0  0
  1 18  1  0  0  0  0
 15 18  1  0  0  0  0
 18 19  1  0  0  0  0
 18 20  1  0  0  0  0
 13 21  1  0  0  0  0
 21 22  1  0  0  0  0
M  END
> <VConfSearch Rank>
790

> <Conf_Id>
104

> <Delta U+W>
-1.172

> <U+W>
5.252

> <U>
7.482

> <W>
-2.230

> <W(PB)>
-4.220

> <W(SA)>
1.990

> <Valence>
12.309

> <Coulomb>
-7.084

> <VdW>
2.258

> <VdW6>
-9.770

> <VdW12>
12.028

> <Bond>
0.284

> <Angle>
3.491

> <Pdih>
8.535

> <Idih>
0.000

> <Tether>
0.000

$$$$
VeraChem MOL file


 22 22  0  0  0  0  0  0  0  0999 V2000     
   19.2365   20.0050   24.0281 C   0  0  0  0  0  0  0  0  0  0  0  0
   19.9335   20.8156   24.2802 H   0  0  0  0  0  0  0  0  0  0  0  0
   18.4884   19.9887   24.8325 H   0  0  0  0  0  0  0  0  0  0  0  0
   19.9575   18.6376   24.0253 C   0  0  0  0  0  0  0  0  0  0  0  0
   20.0647   18.2960   25.0640 H   0  0  0  0  0  0  0  0  0  0  0  0
   19.3145   17.8885   23.5450 H   0  0  0  0  0  0  0  0  0  0  0  0
   21.3644   18.6217   23.3758 C   0  0  0  0  0  0  0  0  0  0  0  0
   21.5746   17.6014   23.0262 H   0  0  0  0  0  0  0  0  0  0  0  0
   22.1102   18.8209   24.1575 H   0  0  0  0  0  0  0  0  0  0  0  0
   21.6242   19.6212   22.2161 C   0  0  0  0  0  0  0  0  0  0  0  0
   21.8160   20.6168   22.6367 H   0  0  0  0  0  0  0  0  0  0  0  0
   22.5613   19.3319   21.7230 H   0  0  0  0  0  0  0  0  0  0  0  0
   20.5286   19.7428   21.1322 C   0  0  0  0  0  0  0  0  0  0  0  0
   21.0060   20.1488   20.2288 H   0  0  0  0  0  0  0  0  0  0  0  0
   19.4036   20.7273   21.5238 C   0  0  0  0  0  0  0  0  0  0  0  0
   19.8535   21.7020   21.7532 H   0  0  0  0  0  0  0  0  0  0  0  0
   18.7721   20.8938   20.6413 H   0  0  0  0  0  0  0  0  0  0  0  0
   18.4942   20.3042   22.7039 C   0  0  0  0  0  0  0  0  0  0  0  0
   17.7789   21.1178   22.8858 H   0  0  0  0  0  0  0  0  0  0  0  0
   17.8863   19.4367   22.4132 H   0  0  0  0  0  0  0  0  0  0  0  0
   19.9810   18.4685   20.8316 O   0  0  0  0  0  0  0  0  0  0  0  0
   19.6538   18.1403   21.6928 H   0  0  0  0  0  0  0  0  0  0  0  0
  1  2  1  0  0  0  0
  1  3  1  0  0  0  0
  1  4  1  0  0  0  0
  4  5  1  0  0  0  0
  4  6  1  0  0  0  0
  4  7  1  0  0  0  0
  7  8  1  0  0  0  0
  7  9  1  0  0  0  0
  7 10  1  0  0  0  0
 10 11  1  0  0  0  0
 10 12  1  0  0  0  0
 10 13  1  0  0  0  0
 13 14  1  0  0  0  0
 13 15  1  0  0  0  0
 15 16  1  0  0  0  0
 15 17  1  0  0  0  0
  1 18  1  0  0  0  0
 15 18  1  0  0  0  0
 18 19  1  0  0  0  0
 18 20  1  0  0  0  0
 13 21  1  0  0  0  0
 21 22  1  0  0  0  0
M  END
> <VConfSearch Rank>
791

> <Conf_Id>
99

> <Delta U+W>
-3.852

> <U+W>
2.572

> <U>
3.922

> <W>
-1.350

> <W(PB)>
-3.345

> <W(SA)>
1.995

> <Valence>
12.571

> <Coulomb>
-10.581

> <VdW>
1.932

> <VdW6>
-10.483

> <VdW12>
12.415

> <Bond>
0.268

> <Angle>
3.728

> <Pdih>
8.575

> <Idih>
0.000

> <Tether>
0.000

$$$$
VeraChem MOL file


 22 22  0  0  0  0  0  0  0  0999 V2000     
   19.6683   20.4380   24.0553 C   0  0  0  0  0  0  0  0  0  0  0  0
   19.7170   20.6020   25.1406 H   0  0  0  0  0  0  0  0  0  0  0  0
   19.0422   21.2553   23.6733 H   0  0  0  0  0  0  0  0  0  0  0  0
   18.9703   19.0681   23.8104 C   0  0  0  0  0  0  0  0  0  0  0  0
   18.7167   18.6393   24.7897 H   0  0  0  0  0  0  0  0  0  0  0  0
   18.0049   19.2195   23.3092 H   0  0  0  0  0  0  0  0  0  0  0  0
   19.7986   18.0132   23.0333 C   0  0  0  0  0  0  0  0  0  0  0  0
   19.2793   17.0475   23.0994 H   0  0  0  0  0  0  0  0  0  0  0  0
   20.7563   17.8465   23.5418 H   0  0  0  0  0  0  0  0  0  0  0  0
   20.0489   18.3163   21.5298 C   0  0  0  0  0  0  0  0  0  0  0  0
   20.9309   17.7479   21.2076 H   0  0  0  0  0  0  0  0  0  0  0  0
   19.2116   17.9062   20.9494 H   0  0  0  0  0  0  0  0  0  0  0  0
   20.2341   19.7929   21.1017 C   0  0  0  0  0  0  0  0  0  0  0  0
   20.6189   19.7810   20.0718 H   0  0  0  0  0  0  0  0  0  0  0  0
   21.2278   20.6308   21.9434 C   0  0  0  0  0  0  0  0  0  0  0  0
   22.2492   20.3363   21.6699 H   0  0  0  0  0  0  0  0  0  0  0  0
   21.1322   21.6770   21.6234 H   0  0  0  0  0  0  0  0  0  0  0  0
   21.1054   20.5781   23.4916 C   0  0  0  0  0  0  0  0  0  0  0  0
   21.7380   19.7732   23.8859 H   0  0  0  0  0  0  0  0  0  0  0  0
   21.5475   21.4993   23.8951 H   0  0  0  0  0  0  0  0  0  0  0  0
   18.9724   20.4413   21.0698 O   0  0  0  0  0  0  0  0  0  0  0  0
   18.6753   20.4262   22.0017 H   0  0  0  0  0  0  0  0  0  0  0  0
  1  2  1  0  0  0  0
  1  3  1  0  0  0  0
  1  4  1  0  0  0  0
  4  5  1  0  0  0  0
  4  6  1  0  0  0  0
  4  7  1  0  0  0  0
  7  8  1  0  0  0  0
  7  9  1  0  0  0  0
  7 10  1  0  0  0  0
 10 11  1  0  0  0  0
 10 12  1  0  0  0  0
 10 13  1  0  0  0  0
 13 14  1  0  0  0  0
 13 15  1  0  0  0  0
 15 16  1  0  0  0  0
 15 17  1  0  0  0  0
  1 18  1  0  0  0  0
 15 18  1  0  0  0  0
 18 19  1  0  0  0  0
 18 20  1  0  0  0  0
 13 21  1  0  0  0  0
 21 22  1  0  0  0  0
M  END
> <VConfSearch Rank>
792

> <Conf_Id>
98

> <Delta U+W>
0.930

> <U+W>
7.353

> <U>
8.455

> <W>
-1.102

> <W(PB)>
-3.101

> <W(SA)>
2.000

> <Valence>
15.601

> <Coulomb>
-10.573

> <VdW>
3.427

> <VdW6>
-11.360

> <VdW12>
14.787

> <Bond>
0.471

> <Angle>
5.445

> <Pdih>
9.685

> <Idih>
0.000

> <Tether>
0.000

$$$$
VeraChem MOL file


 22 22  0  0  0  0  0  0  0  0999 V2000     
   20.4750   18.3345   21.5129 C   0  0  0  0  0  0  0  0  0  0  0  0
   19.7619   18.7970   20.8183 H   0  0  0  0  0  0  0  0  0  0  0  0
   20.9509   17.5284   20.9380 H   0  0  0  0  0  0  0  0  0  0  0  0
   19.7114   17.7051   22.7057 C   0  0  0  0  0  0  0  0  0  0  0  0
   19.0167   16.9588   22.2968 H   0  0  0  0  0  0  0  0  0  0  0  0
   20.4136   17.1435   23.3367 H   0  0  0  0  0  0  0  0  0  0  0  0
   18.8983   18.6863   23.5950 C   0  0  0  0  0  0  0  0  0  0  0  0
   19.4353   18.8770   24.5332 H   0  0  0  0  0  0  0  0  0  0  0  0
   17.9694   18.1843   23.8980 H   0  0  0  0  0  0  0  0  0  0  0  0
   18.5367   20.0370   22.9222 C   0  0  0  0  0  0  0  0  0  0  0  0
   18.0573   19.8404   21.9552 H   0  0  0  0  0  0  0  0  0  0  0  0
   17.7611   20.5266   23.5266 H   0  0  0  0  0  0  0  0  0  0  0  0
   19.7168   21.0311   22.7153 C   0  0  0  0  0  0  0  0  0  0  0  0
   19.6519   21.4254   21.6908 H   0  0  0  0  0  0  0  0  0  0  0  0
   21.1374   20.4476   22.9193 C   0  0  0  0  0  0  0  0  0  0  0  0
   21.8683   21.2649   22.8672 H   0  0  0  0  0  0  0  0  0  0  0  0
   21.2294   20.0471   23.9360 H   0  0  0  0  0  0  0  0  0  0  0  0
   21.5634   19.3642   21.8972 C   0  0  0  0  0  0  0  0  0  0  0  0
   21.9062   19.8582   20.9778 H   0  0  0  0  0  0  0  0  0  0  0  0
   22.4374   18.8325   22.2973 H   0  0  0  0  0  0  0  0  0  0  0  0
   19.5634   22.1096   23.6310 O   0  0  0  0  0  0  0  0  0  0  0  0
   20.2835   22.7463   23.4410 H   0  0  0  0  0  0  0  0  0  0  0  0
  1  2  1  0  0  0  0
  1  3  1  0  0  0  0
  1  4  1  0  0  0  0
  4  5  1  0  0  0  0
  4  6  1  0  0  0  0
  4  7  1  0  0  0  0
  7  8  1  0  0  0  0
  7  9  1  0  0  0  0
  7 10  1  0  0  0  0
 10 11  1  0  0  0  0
 10 12  1  0  0  0  0
 10 13  1  0  0  0  0
 13 14  1  0  0  0  0
 13 15  1  0  0  0  0
 15 16  1  0  0  0  0
 15 17  1  0  0  0  0
  1 18  1  0  0  0  0
 15 18  1  0  0  0  0
 18 19  1  0  0  0  0
 18 20  1  0  0  0  0
 13 21  1  0  0  0  0
 21 22  1  0  0  0  0
M  END
> <VConfSearch Rank>
793

> <Conf_Id>
141

> <Delta U+W>
0.000

> <U+W>
6.423

> <U>
8.781

> <W>
-2.358

> <W(PB)>
-4.373

> <W(SA)>
2.015

> <Valence>
13.328

> <Coulomb>
-8.387

> <VdW>
3.840

> <VdW6>
-9.744

> <VdW12>
13.584

> <Bond>
0.436

> <Angle>
3.478

> <Pdih>
9.415

> <Idih>
0.000

> <Tether>
0.000

$$$$
VeraChem MOL file


 22 22  0  0  0  0  0  0  0  0999 V2000     
   21.4579   19.9354   23.5432 C   0  0  0  0  0  0  0  0  0  0  0  0
   21.7275   18.8759   23.4369 H   0  0  0  0  0  0  0  0  0  0  0  0
   22.3029   20.4137   24.0571 H   0  0  0  0  0  0  0  0  0  0  0  0
   20.2078   20.1011   24.4408 C   0  0  0  0  0  0  0  0  0  0  0  0
   20.4770   19.8263   25.4698 H   0  0  0  0  0  0  0  0  0  0  0  0
   19.9254   21.1620   24.4795 H   0  0  0  0  0  0  0  0  0  0  0  0
   18.9798   19.2600   24.0228 C   0  0  0  0  0  0  0  0  0  0  0  0
   18.1461   19.5156   24.6910 H   0  0  0  0  0  0  0  0  0  0  0  0
   19.1893   18.1960   24.1987 H   0  0  0  0  0  0  0  0  0  0  0  0
   18.5183   19.4593   22.5584 C   0  0  0  0  0  0  0  0  0  0  0  0
   17.5260   19.0004   22.4577 H   0  0  0  0  0  0  0  0  0  0  0  0
   18.3855   20.5261   22.3360 H   0  0  0  0  0  0  0  0  0  0  0  0
   19.4779   18.8088   21.5367 C   0  0  0  0  0  0  0  0  0  0  0  0
   19.9097   17.9078   21.9955 H   0  0  0  0  0  0  0  0  0  0  0  0
   20.6372   19.7206   21.0741 C   0  0  0  0  0  0  0  0  0  0  0  0
   21.4065   19.0774   20.6276 H   0  0  0  0  0  0  0  0  0  0  0  0
   20.2848   20.3741   20.2649 H   0  0  0  0  0  0  0  0  0  0  0  0
   21.2983   20.6069   22.1592 C   0  0  0  0  0  0  0  0  0  0  0  0
   22.2889   20.9095   21.7931 H   0  0  0  0  0  0  0  0  0  0  0  0
   20.7282   21.5395   22.2693 H   0  0  0  0  0  0  0  0  0  0  0  0
   18.7326   18.4260   20.3873 O   0  0  0  0  0  0  0  0  0  0  0  0
   18.0516   17.7900   20.6913 H   0  0  0  0  0  0  0  0  0  0  0  0
  1  2  1  0  0  0  0
  1  3  1  0  0  0  0
  1  4  1  0  0  0  0
  4  5  1  0  0  0  0
  4  6  1  0  0  0  0
  4  7  1  0  0  0  0
  7  8  1  0  0  0  0
  7  9  1  0  0  0  0
  7 10  1  0  0  0  0
 10 11  1  0  0  0  0
 10 12  1  0  0  0  0
 10 13  1  0  0  0  0
 13 14  1  0  0  0  0
 13 15  1  0  0  0  0
 15 16  1  0  0  0  0
 15 17  1  0  0  0  0
  1 18  1  0  0  0  0
 15 18  1  0  0  0  0
 18 19  1  0  0  0  0
 18 20  1  0  0  0  0
 13 21  1  0  0  0  0
 21 22  1  0  0  0  0
M  END
> <VConfSearch Rank>
794

> <Conf_Id>
144

> <Delta U+W>
-3.291

> <U+W>
3.132

> <U>
5.411

> <W>
-2.279

> <W(PB)>
-4.300

> <W(SA)>
2.021

> <Valence>
11.909

> <Coulomb>
-8.733

> <VdW>
2.236

> <VdW6>
-8.936

> <VdW12>
11.172

> <Bond>
0.223

> <Angle>
2.457

> <Pdih>
9.228

> <Idih>
0.000

> <Tether>
0.000

$$$$
VeraChem MOL file


 22 22  0  0  0  0  0  0  0  0999 V2000     
   20.3424   17.8824   22.8771 C   0  0  0  0  0  0  0  0  0  0  0  0
   20.7079   16.8547   22.7464 H   0  0  0  0  0  0  0  0  0  0  0  0
   19.9055   17.9237   23.8841 H   0  0  0  0  0  0  0  0  0  0  0  0
   19.2667   18.1483   21.7982 C   0  0  0  0  0  0  0  0  0  0  0  0
   19.7561   18.4247   20.8543 H   0  0  0  0  0  0  0  0  0  0  0  0
   18.7344   17.2105   21.5883 H   0  0  0  0  0  0  0  0  0  0  0  0
   18.2143   19.2205   22.1709 C   0  0  0  0  0  0  0  0  0  0  0  0
   17.4264   18.7524   22.7768 H   0  0  0  0  0  0  0  0  0  0  0  0
   17.7218   19.5525   21.2466 H   0  0  0  0  0  0  0  0  0  0  0  0
   18.7385   20.4604   22.9362 C   0  0  0  0  0  0  0  0  0  0  0  0
   17.9889   21.2573   22.8382 H   0  0  0  0  0  0  0  0  0  0  0  0
   18.7877   20.2283   24.0079 H   0  0  0  0  0  0  0  0  0  0  0  0
   20.1130   20.9847   22.4635 C   0  0  0  0  0  0  0  0  0  0  0  0
   20.2102   20.8369   21.3785 H   0  0  0  0  0  0  0  0  0  0  0  0
   21.2913   20.2953   23.1884 C   0  0  0  0  0  0  0  0  0  0  0  0
   22.2056   20.8749   23.0032 H   0  0  0  0  0  0  0  0  0  0  0  0
   21.1249   20.3298   24.2729 H   0  0  0  0  0  0  0  0  0  0  0  0
   21.5589   18.8322   22.7626 C   0  0  0  0  0  0  0  0  0  0  0  0
   21.9381   18.8166   21.7317 H   0  0  0  0  0  0  0  0  0  0  0  0
   22.3720   18.4366   23.3864 H   0  0  0  0  0  0  0  0  0  0  0  0
   20.1815   22.3761   22.7453 O   0  0  0  0  0  0  0  0  0  0  0  0
   20.0898   22.4666   23.7161 H   0  0  0  0  0  0  0  0  0  0  0  0
  1  2  1  0  0  0  0
  1  3  1  0  0  0  0
  1  4  1  0  0  0  0
  4  5  1  0  0  0  0
  4  6  1  0  0  0  0
  4  7  1  0  0  0  0
  7  8  1  0  0  0  0
  7  9  1  0  0  0  0
  7 10  1  0  0  0  0
 10 11  1  0  0  0  0
 10 12  1  0  0  0  0
 10 13  1  0  0  0  0
 13 14  1  0  0  0  0
 13 15  1  0  0  0  0
 15 16  1  0  0  0  0
 15 17  1  0  0  0  0
  1 18  1  0  0  0  0
 15 18  1  0  0  0  0
 18 19  1  0  0  0  0
 18 20  1  0  0  0  0
 13 21  1  0  0  0  0
 21 22  1  0  0  0  0
M  END
> <VConfSearch Rank>
795

> <Conf_Id>
76

> <Delta U+W>
-3.175

> <U+W>
3.248

> <U>
5.336

> <W>
-2.088

> <W(PB)>
-4.098

> <W(SA)>
2.010

> <Valence>
12.390

> <Coulomb>
-9.270

> <VdW>
2.216

> <VdW6>
-8.967

> <VdW12>
11.183

> <Bond>
0.218

> <Angle>
2.426

> <Pdih>
9.745

> <Idih>
0.000

> <Tether>
0.000

$$$$
VeraChem MOL file


 22 22  0  0  0  0  0  0  0  0999 V2000     
   20.4157   18.2586   21.3802 C   0  0  0  0  0  0  0  0  0  0  0  0
   21.2302   18.2589   20.6432 H   0  0  0  0  0  0  0  0  0  0  0  0
   19.8945   17.3006   21.2482 H   0  0  0  0  0  0  0  0  0  0  0  0
   19.4442   19.4106   21.0283 C   0  0  0  0  0  0  0  0  0  0  0  0
   20.0155   20.2698   20.6516 H   0  0  0  0  0  0  0  0  0  0  0  0
   18.8189   19.0822   20.1869 H   0  0  0  0  0  0  0  0  0  0  0  0
   18.5274   19.8701   22.1859 C   0  0  0  0  0  0  0  0  0  0  0  0
   18.2065   19.0153   22.7968 H   0  0  0  0  0  0  0  0  0  0  0  0
   17.6127   20.2930   21.7492 H   0  0  0  0  0  0  0  0  0  0  0  0
   19.1787   20.9649   23.0687 C   0  0  0  0  0  0  0  0  0  0  0  0
   19.5534   21.7714   22.4255 H   0  0  0  0  0  0  0  0  0  0  0  0
   18.3987   21.4227   23.6912 H   0  0  0  0  0  0  0  0  0  0  0  0
   20.3207   20.5007   24.0011 C   0  0  0  0  0  0  0  0  0  0  0  0
   20.7854   21.4095   24.4099 H   0  0  0  0  0  0  0  0  0  0  0  0
   21.4435   19.6849   23.3124 C   0  0  0  0  0  0  0  0  0  0  0  0
   21.8757   20.2683   22.4891 H   0  0  0  0  0  0  0  0  0  0  0  0
   22.2541   19.5565   24.0413 H   0  0  0  0  0  0  0  0  0  0  0  0
   21.0216   18.2819   22.8038 C   0  0  0  0  0  0  0  0  0  0  0  0
   21.9023   17.6255   22.8060 H   0  0  0  0  0  0  0  0  0  0  0  0
   20.3152   17.8227   23.5078 H   0  0  0  0  0  0  0  0  0  0  0  0
   19.7702   19.7582   25.0845 O   0  0  0  0  0  0  0  0  0  0  0  0
   20.5270   19.4412   25.6184 H   0  0  0  0  0  0  0  0  0  0  0  0
  1  2  1  0  0  0  0
  1  3  1  0  0  0  0
  1  4  1  0  0  0  0
  4  5  1  0  0  0  0
  4  6  1  0  0  0  0
  4  7  1  0  0  0  0
  7  8  1  0  0  0  0
  7  9  1  0  0  0  0
  7 10  1  0  0  0  0
 10 11  1  0  0  0  0
 10 12  1  0  0  0  0
 10 13  1  0  0  0  0
 13 14  1  0  0  0  0
 13 15  1  0  0  0  0
 15 16  1  0  0  0  0
 15 17  1  0  0  0  0
  1 18  1  0  0  0  0
 15 18  1  0  0  0  0
 18 19  1  0  0  0  0
 18 20  1  0  0  0  0
 13 21  1  0  0  0  0
 21 22  1  0  0  0  0
M  END
> <VConfSearch Rank>
796

> <Conf_Id>
95

> <Delta U+W>
-2.289

> <U+W>
4.134

> <U>
6.373

> <W>
-2.240

> <W(PB)>
-4.254

> <W(SA)>
2.015

> <Valence>
12.093

> <Coulomb>
-8.058

> <VdW>
2.339

> <VdW6>
-9.683

> <VdW12>
12.022

> <Bond>
0.268

> <Angle>
3.005

> <Pdih>
8.820

> <Idih>
0.000

> <Tether>
0.000

$$$$
VeraChem MOL file


 22 22  0  0  0  0  0  0  0  0999 V2000     
   20.1477   17.7218   22.7877 C   0  0  0  0  0  0  0  0  0  0  0  0
   19.4525   17.0278   23.2795 H   0  0  0  0  0  0  0  0  0  0  0  0
   20.9085   17.0911   22.3079 H   0  0  0  0  0  0  0  0  0  0  0  0
   20.8265   18.5821   23.8801 C   0  0  0  0  0  0  0  0  0  0  0  0
   20.1040   18.7952   24.6795 H   0  0  0  0  0  0  0  0  0  0  0  0
   21.6130   17.9755   24.3496 H   0  0  0  0  0  0  0  0  0  0  0  0
   21.4463   19.9075   23.3795 C   0  0  0  0  0  0  0  0  0  0  0  0
   21.9023   19.7787   22.3884 H   0  0  0  0  0  0  0  0  0  0  0  0
   22.2655   20.1782   24.0592 H   0  0  0  0  0  0  0  0  0  0  0  0
   20.4305   21.0777   23.3746 C   0  0  0  0  0  0  0  0  0  0  0  0
   19.9317   21.1242   24.3513 H   0  0  0  0  0  0  0  0  0  0  0  0
   20.9833   22.0219   23.2849 H   0  0  0  0  0  0  0  0  0  0  0  0
   19.3506   21.0388   22.2692 C   0  0  0  0  0  0  0  0  0  0  0  0
   18.6208   21.8252   22.5102 H   0  0  0  0  0  0  0  0  0  0  0  0
   18.5652   19.7075   22.1634 C   0  0  0  0  0  0  0  0  0  0  0  0
   18.0859   19.4780   23.1237 H   0  0  0  0  0  0  0  0  0  0  0  0
   17.7463   19.8699   21.4508 H   0  0  0  0  0  0  0  0  0  0  0  0
   19.3934   18.4901   21.6763 C   0  0  0  0  0  0  0  0  0  0  0  0
   18.7190   17.7826   21.1753 H   0  0  0  0  0  0  0  0  0  0  0  0
   20.1055   18.8083   20.9034 H   0  0  0  0  0  0  0  0  0  0  0  0
   19.9468   21.3563   21.0151 O   0  0  0  0  0  0  0  0  0  0  0  0
   20.4411   22.1915   21.1419 H   0  0  0  0  0  0  0  0  0  0  0  0
  1  2  1  0  0  0  0
  1  3  1  0  0  0  0
  1  4  1  0  0  0  0
  4  5  1  0  0  0  0
  4  6  1  0  0  0  0
  4  7  1  0  0  0  0
  7  8  1  0  0  0  0
  7  9  1  0  0  0  0
  7 10  1  0  0  0  0
 10 11  1  0  0  0  0
 10 12  1  0  0  0  0
 10 13  1  0  0  0  0
 13 14  1  0  0  0  0
 13 15  1  0  0  0  0
 15 16  1  0  0  0  0
 15 17  1  0  0  0  0
  1 18  1  0  0  0  0
 15 18  1  0  0  0  0
 18 19  1  0  0  0  0
 18 20  1  0  0  0  0
 13 21  1  0  0  0  0
 21 22  1  0  0  0  0
M  END
> <VConfSearch Rank>
797

> <Conf_Id>
41

> <Delta U+W>
-2.114

> <U+W>
4.310

> <U>
6.598

> <W>
-2.289

> <W(PB)>
-4.294

> <W(SA)>
2.005

> <Valence>
12.082

> <Coulomb>
-7.801

> <VdW>
2.317

> <VdW6>
-9.658

> <VdW12>
11.975

> <Bond>
0.267

> <Angle>
3.051

> <Pdih>
8.764

> <Idih>
0.000

> <Tether>
0.000

$$$$
VeraChem MOL file


 22 22  0  0  0  0  0  0  0  0999 V2000     
   21.3414   18.4452   22.6414 C   0  0  0  0  0  0  0  0  0  0  0  0
   22.2676   17.8725   22.7850 H   0  0  0  0  0  0  0  0  0  0  0  0
   20.6450   17.7778   22.1153 H   0  0  0  0  0  0  0  0  0  0  0  0
   21.6768   19.6789   21.7736 C   0  0  0  0  0  0  0  0  0  0  0  0
   22.3232   20.3624   22.3408 H   0  0  0  0  0  0  0  0  0  0  0  0
   22.2708   19.3495   20.9104 H   0  0  0  0  0  0  0  0  0  0  0  0
   20.4465   20.4504   21.2480 C   0  0  0  0  0  0  0  0  0  0  0  0
   19.9147   19.8326   20.5122 H   0  0  0  0  0  0  0  0  0  0  0  0
   20.8083   21.3250   20.6908 H   0  0  0  0  0  0  0  0  0  0  0  0
   19.4594   20.9421   22.3412 C   0  0  0  0  0  0  0  0  0  0  0  0
   20.0026   21.4944   23.1184 H   0  0  0  0  0  0  0  0  0  0  0  0
   18.7849   21.6721   21.8755 H   0  0  0  0  0  0  0  0  0  0  0  0
   18.5713   19.8516   22.9939 C   0  0  0  0  0  0  0  0  0  0  0  0
   17.7378   20.3755   23.4841 H   0  0  0  0  0  0  0  0  0  0  0  0
   19.2497   18.9959   24.0951 C   0  0  0  0  0  0  0  0  0  0  0  0
   19.0062   19.4415   25.0684 H   0  0  0  0  0  0  0  0  0  0  0  0
   18.7872   18.0003   24.1103 H   0  0  0  0  0  0  0  0  0  0  0  0
   20.7880   18.8265   24.0322 C   0  0  0  0  0  0  0  0  0  0  0  0
   21.2790   19.7417   24.3896 H   0  0  0  0  0  0  0  0  0  0  0  0
   21.0689   18.0428   24.7489 H   0  0  0  0  0  0  0  0  0  0  0  0
   18.0166   18.9978   21.9968 O   0  0  0  0  0  0  0  0  0  0  0  0
   17.4380   18.3594   22.4611 H   0  0  0  0  0  0  0  0  0  0  0  0
  1  2  1  0  0  0  0
  1  3  1  0  0  0  0
  1  4  1  0  0  0  0
  4  5  1  0  0  0  0
  4  6  1  0  0  0  0
  4  7  1  0  0  0  0
  7  8  1  0  0  0  0
  7  9  1  0  0  0  0
  7 10  1  0  0  0  0
 10 11  1  0  0  0  0
 10 12  1  0  0  0  0
 10 13  1  0  0  0  0
 13 14  1  0  0  0  0
 13 15  1  0  0  0  0
 15 16  1  0  0  0  0
 15 17  1  0  0  0  0
  1 18  1  0  0  0  0
 15 18  1  0  0  0  0
 18 19  1  0  0  0  0
 18 20  1  0  0  0  0
 13 21  1  0  0  0  0
 21 22  1  0  0  0  0
M  END
> <VConfSearch Rank>
798

> <Conf_Id>
104

> <Delta U+W>
-1.172

> <U+W>
5.252

> <U>
7.482

> <W>
-2.230

> <W(PB)>
-4.220

> <W(SA)>
1.990

> <Valence>
12.309

> <Coulomb>
-7.084

> <VdW>
2.258

> <VdW6>
-9.770

> <VdW12>
12.028

> <Bond>
0.284

> <Angle>
3.491

> <Pdih>
8.535

> <Idih>
0.000

> <Tether>
0.000

$$$$
VeraChem MOL file


 22 22  0  0  0  0  0  0  0  0999 V2000     
   19.7198   19.8531   21.0824 C   0  0  0  0  0  0  0  0  0  0  0  0
   18.6894   20.1698   21.2931 H   0  0  0  0  0  0  0  0  0  0  0  0
   19.8313   19.8944   19.9903 H   0  0  0  0  0  0  0  0  0  0  0  0
   19.9494   18.3902   21.5260 C   0  0  0  0  0  0  0  0  0  0  0  0
   19.5298   17.7222   20.7611 H   0  0  0  0  0  0  0  0  0  0  0  0
   21.0262   18.1761   21.5299 H   0  0  0  0  0  0  0  0  0  0  0  0
   19.3267   17.9963   22.8894 C   0  0  0  0  0  0  0  0  0  0  0  0
   19.8979   17.1531   23.3019 H   0  0  0  0  0  0  0  0  0  0  0  0
   18.3167   17.6033   22.7094 H   0  0  0  0  0  0  0  0  0  0  0  0
   19.2107   19.1087   23.9666 C   0  0  0  0  0  0  0  0  0  0  0  0
   18.3422   19.7401   23.7383 H   0  0  0  0  0  0  0  0  0  0  0  0
   18.9734   18.6288   24.9249 H   0  0  0  0  0  0  0  0  0  0  0  0
   20.4436   20.0174   24.1765 C   0  0  0  0  0  0  0  0  0  0  0  0
   20.3618   20.4521   25.1830 H   0  0  0  0  0  0  0  0  0  0  0  0
   20.4944   21.1993   23.1821 C   0  0  0  0  0  0  0  0  0  0  0  0
   19.5578   21.7662   23.2617 H   0  0  0  0  0  0  0  0  0  0  0  0
   21.2850   21.8875   23.5088 H   0  0  0  0  0  0  0  0  0  0  0  0
   20.7399   20.8419   21.6953 C   0  0  0  0  0  0  0  0  0  0  0  0
   20.7073   21.7744   21.1155 H   0  0  0  0  0  0  0  0  0  0  0  0
   21.7589   20.4518   21.5693 H   0  0  0  0  0  0  0  0  0  0  0  0
   21.6409   19.2595   24.0973 O   0  0  0  0  0  0  0  0  0  0  0  0
   21.6006   18.8415   23.2141 H   0  0  0  0  0  0  0  0  0  0  0  0
  1  2  1  0  0  0  0
  1  3  1  0  0  0  0
  1  4  1  0  0  0  0
  4  5  1  0  0  0  0
  4  6  1  0  0  0  0
  4  7  1  0  0  0  0
  7  8  1  0  0  0  0
  7  9  1  0  0  0  0
  7 10  1  0  0  0  0
 10 11  1  0  0  0  0
 10 12  1  0  0  0  0
 10 13  1  0  0  0  0
 13 14  1  0  0  0  0
 13 15  1  0  0  0  0
 15 16  1  0  0  0  0
 15 17  1  0  0  0  0
  1 18  1  0  0  0  0
 15 18  1  0  0  0  0
 18 19  1  0  0  0  0
 18 20  1  0  0  0  0
 13 21  1  0  0  0  0
 21 22  1  0  0  0  0
M  END
> <VConfSearch Rank>
799

> <Conf_Id>
99

> <Delta U+W>
-3.852

> <U+W>
2.572

> <U>
3.922

> <W>
-1.350

> <W(PB)>
-3.345

> <W(SA)>
1.995

> <Valence>
12.571

> <Coulomb>
-10.581

> <VdW>
1.932

> <VdW6>
-10.483

> <VdW12>
12.415

> <Bond>
0.268

> <Angle>
3.728

> <Pdih>
8.575

> <Idih>
0.000

> <Tether>
0.000

$$$$
VeraChem MOL file


 22 22  0  0  0  0  0  0  0  0999 V2000     
   20.0936   18.1649   23.5380 C   0  0  0  0  0  0  0  0  0  0  0  0
   19.9457   17.5891   24.4620 H   0  0  0  0  0  0  0  0  0  0  0  0
   20.3976   17.4229   22.7876 H   0  0  0  0  0  0  0  0  0  0  0  0
   21.2479   19.1795   23.7874 C   0  0  0  0  0  0  0  0  0  0  0  0
   21.5996   19.0427   24.8193 H   0  0  0  0  0  0  0  0  0  0  0  0
   22.1129   18.9308   23.1582 H   0  0  0  0  0  0  0  0  0  0  0  0
   20.8874   20.6761   23.6059 C   0  0  0  0  0  0  0  0  0  0  0  0
   21.7170   21.2819   23.9952 H   0  0  0  0  0  0  0  0  0  0  0  0
   20.0347   20.9320   24.2471 H   0  0  0  0  0  0  0  0  0  0  0  0
   20.6051   21.1371   22.1490 C   0  0  0  0  0  0  0  0  0  0  0  0
   20.0010   22.0526   22.1899 H   0  0  0  0  0  0  0  0  0  0  0  0
   21.5564   21.4376   21.6899 H   0  0  0  0  0  0  0  0  0  0  0  0
   19.9171   20.1387   21.1857 C   0  0  0  0  0  0  0  0  0  0  0  0
   19.6041   20.7122   20.3014 H   0  0  0  0  0  0  0  0  0  0  0  0
   18.6553   19.4228   21.7273 C   0  0  0  0  0  0  0  0  0  0  0  0
   17.8207   20.1356   21.7182 H   0  0  0  0  0  0  0  0  0  0  0  0
   18.3800   18.6446   21.0031 H   0  0  0  0  0  0  0  0  0  0  0  0
   18.7264   18.7766   23.1388 C   0  0  0  0  0  0  0  0  0  0  0  0
   18.4114   19.5052   23.8960 H   0  0  0  0  0  0  0  0  0  0  0  0
   17.9662   17.9849   23.1845 H   0  0  0  0  0  0  0  0  0  0  0  0
   20.8603   19.1739   20.7467 O   0  0  0  0  0  0  0  0  0  0  0  0
   21.1053   18.6942   21.5632 H   0  0  0  0  0  0  0  0  0  0  0  0
  1  2  1  0  0  0  0
  1  3  1  0  0  0  0
  1  4  1  0  0  0  0
  4  5  1  0  0  0  0
  4  6  1  0  0  0  0
  4  7  1  0  0  0  0
  7  8  1  0  0  0  0
  7  9  1  0  0  0  0
  7 10  1  0  0  0  0
 10 11  1  0  0  0  0
 10 12  1  0  0  0  0
 10 13  1  0  0  0  0
 13 14  1  0  0  0  0
 13 15  1  0  0  0  0
 15 16  1  0  0  0  0
 15 17  1  0  0  0  0
  1 18  1  0  0  0  0
 15 18  1  0  0  0  0
 18 19  1  0  0  0  0
 18 20  1  0  0  0  0
 13 21  1  0  0  0  0
 21 22  1  0  0  0  0
M  END
> <VConfSearch Rank>
800

> <Conf_Id>
98

> <Delta U+W>
0.930

> <U+W>
7.353

> <U>
8.455

> <W>
-1.102

> <W(PB)>
-3.101

> <W(SA)>
2.000

> <Valence>
15.601

> <Coulomb>
-10.573

> <VdW>
3.427

> <VdW6>
-11.360

> <VdW12>
14.787

> <Bond>
0.471

> <Angle>
5.445

> <Pdih>
9.685

> <Idih>
0.000

> <Tether>
0.000

$$$$
VeraChem MOL file


 22 22  0  0  0  0  0  0  0  0999 V2000     
   18.7822   20.3554   23.5256 C   0  0  0  0  0  0  0  0  0  0  0  0
   18.1426   20.2211   22.6438 H   0  0  0  0  0  0  0  0  0  0  0  0
   18.1403   20.8430   24.2719 H   0  0  0  0  0  0  0  0  0  0  0  0
   19.9534   21.3108   23.1827 C   0  0  0  0  0  0  0  0  0  0  0  0
   19.5172   22.2664   22.8612 H   0  0  0  0  0  0  0  0  0  0  0  0
   20.5234   21.5358   24.0944 H   0  0  0  0  0  0  0  0  0  0  0  0
   20.9310   20.8287   22.0752 C   0  0  0  0  0  0  0  0  0  0  0  0
   21.8628   20.4654   22.5278 H   0  0  0  0  0  0  0  0  0  0  0  0
   21.2284   21.7010   21.4775 H   0  0  0  0  0  0  0  0  0  0  0  0
   20.3616   19.7442   21.1227 C   0  0  0  0  0  0  0  0  0  0  0  0
   19.3988   20.0860   20.7228 H   0  0  0  0  0  0  0  0  0  0  0  0
   21.0210   19.6734   20.2472 H   0  0  0  0  0  0  0  0  0  0  0  0
   20.1851   18.3245   21.7367 C   0  0  0  0  0  0  0  0  0  0  0  0
   19.1918   17.9515   21.4479 H   0  0  0  0  0  0  0  0  0  0  0  0
   20.3055   18.2340   23.2787 C   0  0  0  0  0  0  0  0  0  0  0  0
   20.2856   17.1773   23.5754 H   0  0  0  0  0  0  0  0  0  0  0  0
   21.2898   18.6002   23.5941 H   0  0  0  0  0  0  0  0  0  0  0  0
   19.2006   18.9715   24.0756 C   0  0  0  0  0  0  0  0  0  0  0  0
   18.3061   18.3350   24.1153 H   0  0  0  0  0  0  0  0  0  0  0  0
   19.5370   19.0836   25.1153 H   0  0  0  0  0  0  0  0  0  0  0  0
   21.1752   17.4667   21.1807 O   0  0  0  0  0  0  0  0  0  0  0  0
   21.0059   16.5704   21.5387 H   0  0  0  0  0  0  0  0  0  0  0  0
  1  2  1  0  0  0  0
  1  3  1  0  0  0  0
  1  4  1  0  0  0  0
  4  5  1  0  0  0  0
  4  6  1  0  0  0  0
  4  7  1  0  0  0  0
  7  8  1  0  0  0  0
  7  9  1  0  0  0  0
  7 10  1  0  0  0  0
 10 11  1  0  0  0  0
 10 12  1  0  0  0  0
 10 13  1  0  0  0  0
 13 14  1  0  0  0  0
 13 15  1  0  0  0  0
 15 16  1  0  0  0  0
 15 17  1  0  0  0  0
  1 18  1  0  0  0  0
 15 18  1  0  0  0  0
 18 19  1  0  0  0  0
 18 20  1  0  0  0  0
 13 21  1  0  0  0  0
 21 22  1  0  0  0  0
M  END
> <VConfSearch Rank>
801

> <Conf_Id>
141

> <Delta U+W>
0.000

> <U+W>
6.423

> <U>
8.781

> <W>
-2.358

> <W(PB)>
-4.373

> <W(SA)>
2.015

> <Valence>
13.328

> <Coulomb>
-8.387

> <VdW>
3.840

> <VdW6>
-9.744

> <VdW12>
13.584

> <Bond>
0.436

> <Angle>
3.478

> <Pdih>
9.415

> <Idih>
0.000

> <Tether>
0.000

$$$$
VeraChem MOL file


 22 22  0  0  0  0  0  0  0  0999 V2000     
   19.8042   21.3340   22.4218 C   0  0  0  0  0  0  0  0  0  0  0  0
   20.6301   21.2972   21.6984 H   0  0  0  0  0  0  0  0  0  0  0  0
   19.4485   22.3734   22.4239 H   0  0  0  0  0  0  0  0  0  0  0  0
   20.3039   21.0057   23.8495 C   0  0  0  0  0  0  0  0  0  0  0  0
   20.9485   21.8267   24.1920 H   0  0  0  0  0  0  0  0  0  0  0  0
   19.4493   20.9895   24.5396 H   0  0  0  0  0  0  0  0  0  0  0  0
   21.0945   19.6839   23.9837 C   0  0  0  0  0  0  0  0  0  0  0  0
   21.3318   19.5332   25.0456 H   0  0  0  0  0  0  0  0  0  0  0  0
   22.0615   19.7836   23.4719 H   0  0  0  0  0  0  0  0  0  0  0  0
   20.3602   18.4263   23.4581 C   0  0  0  0  0  0  0  0  0  0  0  0
   20.9114   17.5465   23.8152 H   0  0  0  0  0  0  0  0  0  0  0  0
   19.3551   18.3544   23.8936 H   0  0  0  0  0  0  0  0  0  0  0  0
   20.2862   18.3799   21.9153 C   0  0  0  0  0  0  0  0  0  0  0  0
   21.1928   18.8541   21.5129 H   0  0  0  0  0  0  0  0  0  0  0  0
   19.0559   19.0935   21.3099 C   0  0  0  0  0  0  0  0  0  0  0  0
   19.2685   19.2771   20.2488 H   0  0  0  0  0  0  0  0  0  0  0  0
   18.1944   18.4127   21.3305 H   0  0  0  0  0  0  0  0  0  0  0  0
   18.6336   20.4293   21.9710 C   0  0  0  0  0  0  0  0  0  0  0  0
   18.0118   20.9816   21.2532 H   0  0  0  0  0  0  0  0  0  0  0  0
   17.9795   20.2238   22.8293 H   0  0  0  0  0  0  0  0  0  0  0  0
   20.2564   17.0202   21.4986 O   0  0  0  0  0  0  0  0  0  0  0  0
   21.0811   16.6058   21.8282 H   0  0  0  0  0  0  0  0  0  0  0  0
  1  2  1  0  0  0  0
  1  3  1  0  0  0  0
  1  4  1  0  0  0  0
  4  5  1  0  0  0  0
  4  6  1  0  0  0  0
  4  7  1  0  0  0  0
  7  8  1  0  0  0  0
  7  9  1  0  0  0  0
  7 10  1  0  0  0  0
 10 11  1  0  0  0  0
 10 12  1  0  0  0  0
 10 13  1  0  0  0  0
 13 14  1  0  0  0  0
 13 15  1  0  0  0  0
 15 16  1  0  0  0  0
 15 17  1  0  0  0  0
  1 18  1  0  0  0  0
 15 18  1  0  0  0  0
 18 19  1  0  0  0  0
 18 20  1  0  0  0  0
 13 21  1  0  0  0  0
 21 22  1  0  0  0  0
M  END
> <VConfSearch Rank>
802

> <Conf_Id>
144

> <Delta U+W>
-3.291

> <U+W>
3.132

> <U>
5.411

> <W>
-2.279

> <W(PB)>
-4.300

> <W(SA)>
2.021

> <Valence>
11.909

> <Coulomb>
-8.733

> <VdW>
2.236

> <VdW6>
-8.936

> <VdW12>
11.172

> <Bond>
0.223

> <Angle>
2.457

> <Pdih>
9.228

> <Idih>
0.000

> <Tether>
0.000

$$$$
VeraChem MOL file


 22 22  0  0  0  0  0  0  0  0999 V2000     
   19.1138   20.2993   21.3252 C   0  0  0  0  0  0  0  0  0  0  0  0
   18.5432   20.9846   20.6837 H   0  0  0  0  0  0  0  0  0  0  0  0
   19.3799   19.4415   20.6926 H   0  0  0  0  0  0  0  0  0  0  0  0
   18.1973   19.8608   22.4913 C   0  0  0  0  0  0  0  0  0  0  0  0
   18.2090   20.6307   23.2749 H   0  0  0  0  0  0  0  0  0  0  0  0
   17.1594   19.8237   22.1329 H   0  0  0  0  0  0  0  0  0  0  0  0
   18.5370   18.4837   23.1111 C   0  0  0  0  0  0  0  0  0  0  0  0
   18.0695   17.6946   22.5064 H   0  0  0  0  0  0  0  0  0  0  0  0
   18.0587   18.4254   24.0984 H   0  0  0  0  0  0  0  0  0  0  0  0
   20.0418   18.1498   23.2594 C   0  0  0  0  0  0  0  0  0  0  0  0
   20.1345   17.3347   23.9898 H   0  0  0  0  0  0  0  0  0  0  0  0
   20.4161   17.7434   22.3109 H   0  0  0  0  0  0  0  0  0  0  0  0
   20.9324   19.3353   23.6941 C   0  0  0  0  0  0  0  0  0  0  0  0
   20.3700   19.9872   24.3776 H   0  0  0  0  0  0  0  0  0  0  0  0
   21.4454   20.1625   22.4934 C   0  0  0  0  0  0  0  0  0  0  0  0
   22.2583   20.8157   22.8380 H   0  0  0  0  0  0  0  0  0  0  0  0
   21.8916   19.4900   21.7492 H   0  0  0  0  0  0  0  0  0  0  0  0
   20.3811   21.0481   21.8031 C   0  0  0  0  0  0  0  0  0  0  0  0
   20.0899   21.8623   22.4809 H   0  0  0  0  0  0  0  0  0  0  0  0
   20.8489   21.5337   20.9359 H   0  0  0  0  0  0  0  0  0  0  0  0
   22.0632   18.8163   24.3813 O   0  0  0  0  0  0  0  0  0  0  0  0
   22.5351   18.2423   23.7433 H   0  0  0  0  0  0  0  0  0  0  0  0
  1  2  1  0  0  0  0
  1  3  1  0  0  0  0
  1  4  1  0  0  0  0
  4  5  1  0  0  0  0
  4  6  1  0  0  0  0
  4  7  1  0  0  0  0
  7  8  1  0  0  0  0
  7  9  1  0  0  0  0
  7 10  1  0  0  0  0
 10 11  1  0  0  0  0
 10 12  1  0  0  0  0
 10 13  1  0  0  0  0
 13 14  1  0  0  0  0
 13 15  1  0  0  0  0
 15 16  1  0  0  0  0
 15 17  1  0  0  0  0
  1 18  1  0  0  0  0
 15 18  1  0  0  0  0
 18 19  1  0  0  0  0
 18 20  1  0  0  0  0
 13 21  1  0  0  0  0
 21 22  1  0  0  0  0
M  END
> <VConfSearch Rank>
803

> <Conf_Id>
76

> <Delta U+W>
-3.175

> <U+W>
3.248

> <U>
5.336

> <W>
-2.088

> <W(PB)>
-4.098

> <W(SA)>
2.010

> <Valence>
12.390

> <Coulomb>
-9.270

> <VdW>
2.216

> <VdW6>
-8.967

> <VdW12>
11.183

> <Bond>
0.218

> <Angle>
2.426

> <Pdih>
9.745

> <Idih>
0.000

> <Tether>
0.000

$$$$
VeraChem MOL file


 22 22  0  0  0  0  0  0  0  0999 V2000     
   18.5844   18.4506   22.3905 C   0  0  0  0  0  0  0  0  0  0  0  0
   18.5664   17.4942   21.8503 H   0  0  0  0  0  0  0  0  0  0  0  0
   17.5707   18.5853   22.7920 H   0  0  0  0  0  0  0  0  0  0  0  0
   18.8734   19.5775   21.3701 C   0  0  0  0  0  0  0  0  0  0  0  0
   19.5823   19.2142   20.6138 H   0  0  0  0  0  0  0  0  0  0  0  0
   17.9436   19.7876   20.8241 H   0  0  0  0  0  0  0  0  0  0  0  0
   19.4046   20.8944   21.9826 C   0  0  0  0  0  0  0  0  0  0  0  0
   18.9209   21.1034   22.9466 H   0  0  0  0  0  0  0  0  0  0  0  0
   19.1223   21.7194   21.3148 H   0  0  0  0  0  0  0  0  0  0  0  0
   20.9478   20.9100   22.1255 C   0  0  0  0  0  0  0  0  0  0  0  0
   21.4018   20.6279   21.1670 H   0  0  0  0  0  0  0  0  0  0  0  0
   21.2718   21.9423   22.3125 H   0  0  0  0  0  0  0  0  0  0  0  0
   21.5398   20.0160   23.2388 C   0  0  0  0  0  0  0  0  0  0  0  0
   22.6288   20.0002   23.0872 H   0  0  0  0  0  0  0  0  0  0  0  0
   21.0568   18.5439   23.2287 C   0  0  0  0  0  0  0  0  0  0  0  0
   21.2768   18.0869   22.2552 H   0  0  0  0  0  0  0  0  0  0  0  0
   21.6628   17.9917   23.9585 H   0  0  0  0  0  0  0  0  0  0  0  0
   19.5615   18.3385   23.5851 C   0  0  0  0  0  0  0  0  0  0  0  0
   19.4377   17.3416   24.0293 H   0  0  0  0  0  0  0  0  0  0  0  0
   19.2605   19.0455   24.3693 H   0  0  0  0  0  0  0  0  0  0  0  0
   21.2771   20.6088   24.5068 O   0  0  0  0  0  0  0  0  0  0  0  0
   21.6208   19.9882   25.1813 H   0  0  0  0  0  0  0  0  0  0  0  0
  1  2  1  0  0  0  0
  1  3  1  0  0  0  0
  1  4  1  0  0  0  0
  4  5  1  0  0  0  0
  4  6  1  0  0  0  0
  4  7  1  0  0  0  0
  7  8  1  0  0  0  0
  7  9  1  0  0  0  0
  7 10  1  0  0  0  0
 10 11  1  0  0  0  0
 10 12  1  0  0  0  0
 10 13  1  0  0  0  0
 13 14  1  0  0  0  0
 13 15  1  0  0  0  0
 15 16  1  0  0  0  0
 15 17  1  0  0  0  0
  1 18  1  0  0  0  0
 15 18  1  0  0  0  0
 18 19  1  0  0  0  0
 18 20  1  0  0  0  0
 13 21  1  0  0  0  0
 21 22  1  0  0  0  0
M  END
> <VConfSearch Rank>
804

> <Conf_Id>
95

> <Delta U+W>
-2.289

> <U+W>
4.134

> <U>
6.373

> <W>
-2.240

> <W(PB)>
-4.254

> <W(SA)>
2.015

> <Valence>
12.093

> <Coulomb>
-8.058

> <VdW>
2.339

> <VdW6>
-9.683

> <VdW12>
12.022

> <Bond>
0.268

> <Angle>
3.005

> <Pdih>
8.820

> <Idih>
0.000

> <Tether>
0.000

$$$$
VeraChem MOL file


 22 22  0  0  0  0  0  0  0  0999 V2000     
   21.9473   19.4489   22.7445 C   0  0  0  0  0  0  0  0  0  0  0  0
   22.6019   19.3761   23.6237 H   0  0  0  0  0  0  0  0  0  0  0  0
   22.6088   19.3571   21.8722 H   0  0  0  0  0  0  0  0  0  0  0  0
   21.3011   20.8548   22.7373 C   0  0  0  0  0  0  0  0  0  0  0  0
   21.0914   21.1664   23.7695 H   0  0  0  0  0  0  0  0  0  0  0  0
   22.0464   21.5689   22.3612 H   0  0  0  0  0  0  0  0  0  0  0  0
   20.0135   20.9800   21.8901 C   0  0  0  0  0  0  0  0  0  0  0  0
   20.0866   20.3802   20.9727 H   0  0  0  0  0  0  0  0  0  0  0  0
   19.9205   22.0249   21.5647 H   0  0  0  0  0  0  0  0  0  0  0  0
   18.7355   20.6184   22.6885 C   0  0  0  0  0  0  0  0  0  0  0  0
   18.7368   21.1704   23.6373 H   0  0  0  0  0  0  0  0  0  0  0  0
   17.8611   20.9888   22.1377 H   0  0  0  0  0  0  0  0  0  0  0  0
   18.5214   19.1174   22.9898 C   0  0  0  0  0  0  0  0  0  0  0  0
   17.6838   19.0522   23.6992 H   0  0  0  0  0  0  0  0  0  0  0  0
   19.7280   18.3993   23.6447 C   0  0  0  0  0  0  0  0  0  0  0  0
   20.0021   18.9044   24.5797 H   0  0  0  0  0  0  0  0  0  0  0  0
   19.3902   17.3958   23.9338 H   0  0  0  0  0  0  0  0  0  0  0  0
   20.9757   18.2446   22.7365 C   0  0  0  0  0  0  0  0  0  0  0  0
   21.5368   17.3564   23.0565 H   0  0  0  0  0  0  0  0  0  0  0  0
   20.6629   18.0336   21.7053 H   0  0  0  0  0  0  0  0  0  0  0  0
   18.1423   18.4448   21.7929 O   0  0  0  0  0  0  0  0  0  0  0  0
   17.3921   18.9464   21.4137 H   0  0  0  0  0  0  0  0  0  0  0  0
  1  2  1  0  0  0  0
  1  3  1  0  0  0  0
  1  4  1  0  0  0  0
  4  5  1  0  0  0  0
  4  6  1  0  0  0  0
  4  7  1  0  0  0  0
  7  8  1  0  0  0  0
  7  9  1  0  0  0  0
  7 10  1  0  0  0  0
 10 11  1  0  0  0  0
 10 12  1  0  0  0  0
 10 13  1  0  0  0  0
 13 14  1  0  0  0  0
 13 15  1  0  0  0  0
 15 16  1  0  0  0  0
 15 17  1  0  0  0  0
  1 18  1  0  0  0  0
 15 18  1  0  0  0  0
 18 19  1  0  0  0  0
 18 20  1  0  0  0  0
 13 21  1  0  0  0  0
 21 22  1  0  0  0  0
M  END
> <VConfSearch Rank>
805

> <Conf_Id>
41

> <Delta U+W>
-2.114

> <U+W>
4.310

> <U>
6.598

> <W>
-2.289

> <W(PB)>
-4.294

> <W(SA)>
2.005

> <Valence>
12.082

> <Coulomb>
-7.801

> <VdW>
2.317

> <VdW6>
-9.658

> <VdW12>
11.975

> <Bond>
0.267

> <Angle>
3.051

> <Pdih>
8.764

> <Idih>
0.000

> <Tether>
0.000

$$$$
VeraChem MOL file


 22 22  0  0  0  0  0  0  0  0999 V2000     
   19.4935   20.1016   24.1671 C   0  0  0  0  0  0  0  0  0  0  0  0
   19.0656   20.6932   24.9878 H   0  0  0  0  0  0  0  0  0  0  0  0
   19.3926   19.0480   24.4617 H   0  0  0  0  0  0  0  0  0  0  0  0
   20.9825   20.4903   24.0291 C   0  0  0  0  0  0  0  0  0  0  0  0
   21.0604   21.5269   23.6743 H   0  0  0  0  0  0  0  0  0  0  0  0
   21.4421   20.4782   25.0267 H   0  0  0  0  0  0  0  0  0  0  0  0
   21.8066   19.5664   23.1059 C   0  0  0  0  0  0  0  0  0  0  0  0
   21.9052   18.5772   23.5725 H   0  0  0  0  0  0  0  0  0  0  0  0
   22.8273   19.9678   23.0494 H   0  0  0  0  0  0  0  0  0  0  0  0
   21.2590   19.4194   21.6603 C   0  0  0  0  0  0  0  0  0  0  0  0
   21.0867   20.4098   21.2202 H   0  0  0  0  0  0  0  0  0  0  0  0
   22.0473   18.9580   21.0519 H   0  0  0  0  0  0  0  0  0  0  0  0
   19.9887   18.5448   21.5012 C   0  0  0  0  0  0  0  0  0  0  0  0
   19.9200   18.2793   20.4363 H   0  0  0  0  0  0  0  0  0  0  0  0
   18.6453   19.2306   21.8620 C   0  0  0  0  0  0  0  0  0  0  0  0
   18.2047   19.6208   20.9354 H   0  0  0  0  0  0  0  0  0  0  0  0
   17.9392   18.4690   22.2182 H   0  0  0  0  0  0  0  0  0  0  0  0
   18.6799   20.3917   22.8865 C   0  0  0  0  0  0  0  0  0  0  0  0
   19.0578   21.3033   22.4044 H   0  0  0  0  0  0  0  0  0  0  0  0
   17.6437   20.6179   23.1725 H   0  0  0  0  0  0  0  0  0  0  0  0
   20.1222   17.3332   22.2395 O   0  0  0  0  0  0  0  0  0  0  0  0
   19.3137   16.8083   22.0700 H   0  0  0  0  0  0  0  0  0  0  0  0
  1  2  1  0  0  0  0
  1  3  1  0  0  0  0
  1  4  1  0  0  0  0
  4  5  1  0  0  0  0
  4  6  1  0  0  0  0
  4  7  1  0  0  0  0
  7  8  1  0  0  0  0
  7  9  1  0  0  0  0
  7 10  1  0  0  0  0
 10 11  1  0  0  0  0
 10 12  1  0  0  0  0
 10 13  1  0  0  0  0
 13 14  1  0  0  0  0
 13 15  1  0  0  0  0
 15 16  1  0  0  0  0
 15 17  1  0  0  0  0
  1 18  1  0  0  0  0
 15 18  1  0  0  0  0
 18 19  1  0  0  0  0
 18 20  1  0  0  0  0
 13 21  1  0  0  0  0
 21 22  1  0  0  0  0
M  END
> <VConfSearch Rank>
806

> <Conf_Id>
104

> <Delta U+W>
-1.172

> <U+W>
5.252

> <U>
7.482

> <W>
-2.230

> <W(PB)>
-4.220

> <W(SA)>
1.990

> <Valence>
12.309

> <Coulomb>
-7.084

> <VdW>
2.258

> <VdW6>
-9.770

> <VdW12>
12.028

> <Bond>
0.284

> <Angle>
3.491

> <Pdih>
8.535

> <Idih>
0.000

> <Tether>
0.000

$$$$
VeraChem MOL file


 22 22  0  0  0  0  0  0  0  0999 V2000     
   21.1931   20.3262   21.7281 C   0  0  0  0  0  0  0  0  0  0  0  0
   21.1660   21.2550   22.3139 H   0  0  0  0  0  0  0  0  0  0  0  0
   21.9094   20.5032   20.9142 H   0  0  0  0  0  0  0  0  0  0  0  0
   19.8153   20.0351   21.0905 C   0  0  0  0  0  0  0  0  0  0  0  0
   19.7047   20.6612   20.1945 H   0  0  0  0  0  0  0  0  0  0  0  0
   19.7975   19.0021   20.7190 H   0  0  0  0  0  0  0  0  0  0  0  0
   18.5869   20.2915   21.9999 C   0  0  0  0  0  0  0  0  0  0  0  0
   17.7584   19.6593   21.6516 H   0  0  0  0  0  0  0  0  0  0  0  0
   18.2494   21.3253   21.8445 H   0  0  0  0  0  0  0  0  0  0  0  0
   18.7771   20.0862   23.5273 C   0  0  0  0  0  0  0  0  0  0  0  0
   19.2862   20.9636   23.9466 H   0  0  0  0  0  0  0  0  0  0  0  0
   17.7838   20.0795   23.9945 H   0  0  0  0  0  0  0  0  0  0  0  0
   19.5289   18.8131   23.9788 C   0  0  0  0  0  0  0  0  0  0  0  0
   19.2398   18.6148   25.0209 H   0  0  0  0  0  0  0  0  0  0  0  0
   21.0645   18.9868   23.9666 C   0  0  0  0  0  0  0  0  0  0  0  0
   21.3255   19.8515   24.5905 H   0  0  0  0  0  0  0  0  0  0  0  0
   21.5112   18.1169   24.4656 H   0  0  0  0  0  0  0  0  0  0  0  0
   21.7308   19.1504   22.5781 C   0  0  0  0  0  0  0  0  0  0  0  0
   22.8068   19.3040   22.7375 H   0  0  0  0  0  0  0  0  0  0  0  0
   21.6474   18.2128   22.0121 H   0  0  0  0  0  0  0  0  0  0  0  0
   19.1557   17.7029   23.1772 O   0  0  0  0  0  0  0  0  0  0  0  0
   19.3652   17.9862   22.2650 H   0  0  0  0  0  0  0  0  0  0  0  0
  1  2  1  0  0  0  0
  1  3  1  0  0  0  0
  1  4  1  0  0  0  0
  4  5  1  0  0  0  0
  4  6  1  0  0  0  0
  4  7  1  0  0  0  0
  7  8  1  0  0  0  0
  7  9  1  0  0  0  0
  7 10  1  0  0  0  0
 10 11  1  0  0  0  0
 10 12  1  0  0  0  0
 10 13  1  0  0  0  0
 13 14  1  0  0  0  0
 13 15  1  0  0  0  0
 15 16  1  0  0  0  0
 15 17  1  0  0  0  0
  1 18  1  0  0  0  0
 15 18  1  0  0  0  0
 18 19  1  0  0  0  0
 18 20  1  0  0  0  0
 13 21  1  0  0  0  0
 21 22  1  0  0  0  0
M  END
> <VConfSearch Rank>
807

> <Conf_Id>
99

> <Delta U+W>
-3.852

> <U+W>
2.572

> <U>
3.922

> <W>
-1.350

> <W(PB)>
-3.345

> <W(SA)>
1.995

> <Valence>
12.571

> <Coulomb>
-10.581

> <VdW>
1.932

> <VdW6>
-10.483

> <VdW12>
12.415

> <Bond>
0.268

> <Angle>
3.728

> <Pdih>
8.575

> <Idih>
0.000

> <Tether>
0.000

$$$$
VeraChem MOL file


 22 22  0  0  0  0  0  0  0  0999 V2000     
   19.0660   19.5894   21.3496 C   0  0  0  0  0  0  0  0  0  0  0  0
   18.8626   19.7821   20.2872 H   0  0  0  0  0  0  0  0  0  0  0  0
   18.1339   19.1625   21.7433 H   0  0  0  0  0  0  0  0  0  0  0  0
   19.3617   20.9558   22.0347 C   0  0  0  0  0  0  0  0  0  0  0  0
   19.2861   21.7400   21.2688 H   0  0  0  0  0  0  0  0  0  0  0  0
   18.5734   21.1931   22.7615 H   0  0  0  0  0  0  0  0  0  0  0  0
   20.7495   21.0895   22.7120 C   0  0  0  0  0  0  0  0  0  0  0  0
   20.9046   22.1438   22.9790 H   0  0  0  0  0  0  0  0  0  0  0  0
   21.5399   20.8706   21.9834 H   0  0  0  0  0  0  0  0  0  0  0  0
   20.9670   20.2379   23.9935 C   0  0  0  0  0  0  0  0  0  0  0  0
   22.0470   20.1078   24.1397 H   0  0  0  0  0  0  0  0  0  0  0  0
   20.6252   20.8206   24.8593 H   0  0  0  0  0  0  0  0  0  0  0  0
   20.2910   18.8468   24.0714 C   0  0  0  0  0  0  0  0  0  0  0  0
   20.7397   18.3211   24.9264 H   0  0  0  0  0  0  0  0  0  0  0  0
   20.4671   17.9293   22.8364 C   0  0  0  0  0  0  0  0  0  0  0  0
   21.4880   17.5262   22.8459 H   0  0  0  0  0  0  0  0  0  0  0  0
   19.8107   17.0597   22.9740 H   0  0  0  0  0  0  0  0  0  0  0  0
   20.1958   18.5311   21.4296 C   0  0  0  0  0  0  0  0  0  0  0  0
   21.1240   18.9487   21.0202 H   0  0  0  0  0  0  0  0  0  0  0  0
   19.9436   17.7033   20.7530 H   0  0  0  0  0  0  0  0  0  0  0  0
   18.9096   19.0039   24.3546 O   0  0  0  0  0  0  0  0  0  0  0  0
   18.5594   19.4726   23.5706 H   0  0  0  0  0  0  0  0  0  0  0  0
  1  2  1  0  0  0  0
  1  3  1  0  0  0  0
  1  4  1  0  0  0  0
  4  5  1  0  0  0  0
  4  6  1  0  0  0  0
  4  7  1  0  0  0  0
  7  8  1  0  0  0  0
  7  9  1  0  0  0  0
  7 10  1  0  0  0  0
 10 11  1  0  0  0  0
 10 12  1  0  0  0  0
 10 13  1  0  0  0  0
 13 14  1  0  0  0  0
 13 15  1  0  0  0  0
 15 16  1  0  0  0  0
 15 17  1  0  0  0  0
  1 18  1  0  0  0  0
 15 18  1  0  0  0  0
 18 19  1  0  0  0  0
 18 20  1  0  0  0  0
 13 21  1  0  0  0  0
 21 22  1  0  0  0  0
M  END
> <VConfSearch Rank>
808

> <Conf_Id>
98

> <Delta U+W>
0.930

> <U+W>
7.353

> <U>
8.455

> <W>
-1.102

> <W(PB)>
-3.101

> <W(SA)>
2.000

> <Valence>
15.601

> <Coulomb>
-10.573

> <VdW>
3.427

> <VdW6>
-11.360

> <VdW12>
14.787

> <Bond>
0.471

> <Angle>
5.445

> <Pdih>
9.685

> <Idih>
0.000

> <Tether>
0.000

$$$$
VeraChem MOL file


 22 22  0  0  0  0  0  0  0  0999 V2000     
   19.7547   19.4601   20.9578 C   0  0  0  0  0  0  0  0  0  0  0  0
   19.2518   18.4997   21.1294 H   0  0  0  0  0  0  0  0  0  0  0  0
   19.6534   19.6465   19.8800 H   0  0  0  0  0  0  0  0  0  0  0  0
   21.2616   19.3302   21.2964 C   0  0  0  0  0  0  0  0  0  0  0  0
   21.6788   18.5446   20.6518 H   0  0  0  0  0  0  0  0  0  0  0  0
   21.7830   20.2548   21.0138 H   0  0  0  0  0  0  0  0  0  0  0  0
   21.6063   18.9798   22.7705 C   0  0  0  0  0  0  0  0  0  0  0  0
   21.9559   19.8764   23.2986 H   0  0  0  0  0  0  0  0  0  0  0  0
   22.4685   18.2991   22.7681 H   0  0  0  0  0  0  0  0  0  0  0  0
   20.4552   18.3210   23.5758 C   0  0  0  0  0  0  0  0  0  0  0  0
   20.0672   17.4631   23.0128 H   0  0  0  0  0  0  0  0  0  0  0  0
   20.8789   17.8882   24.4920 H   0  0  0  0  0  0  0  0  0  0  0  0
   19.2722   19.2570   23.9609 C   0  0  0  0  0  0  0  0  0  0  0  0
   18.3347   18.7288   23.7348 H   0  0  0  0  0  0  0  0  0  0  0  0
   19.2364   20.6316   23.2471 C   0  0  0  0  0  0  0  0  0  0  0  0
   18.4367   21.2406   23.6884 H   0  0  0  0  0  0  0  0  0  0  0  0
   20.1620   21.1808   23.4572 H   0  0  0  0  0  0  0  0  0  0  0  0
   19.0033   20.5792   21.7165 C   0  0  0  0  0  0  0  0  0  0  0  0
   17.9282   20.4596   21.5246 H   0  0  0  0  0  0  0  0  0  0  0  0
   19.2792   21.5526   21.2887 H   0  0  0  0  0  0  0  0  0  0  0  0
   19.3312   19.5051   25.3610 O   0  0  0  0  0  0  0  0  0  0  0  0
   18.5462   20.0470   25.5853 H   0  0  0  0  0  0  0  0  0  0  0  0
  1  2  1  0  0  0  0
  1  3  1  0  0  0  0
  1  4  1  0  0  0  0
  4  5  1  0  0  0  0
  4  6  1  0  0  0  0
  4  7  1  0  0  0  0
  7  8  1  0  0  0  0
  7  9  1  0  0  0  0
  7 10  1  0  0  0  0
 10 11  1  0  0  0  0
 10 12  1  0  0  0  0
 10 13  1  0  0  0  0
 13 14  1  0  0  0  0
 13 15  1  0  0  0  0
 15 16  1  0  0  0  0
 15 17  1  0  0  0  0
  1 18  1  0  0  0  0
 15 18  1  0  0  0  0
 18 19  1  0  0  0  0
 18 20  1  0  0  0  0
 13 21  1  0  0  0  0
 21 22  1  0  0  0  0
M  END
> <VConfSearch Rank>
809

> <Conf_Id>
141

> <Delta U+W>
0.000

> <U+W>
6.423

> <U>
8.781

> <W>
-2.358

> <W(PB)>
-4.373

> <W(SA)>
2.015

> <Valence>
13.328

> <Coulomb>
-8.387

> <VdW>
3.840

> <VdW6>
-9.744

> <VdW12>
13.584

> <Bond>
0.436

> <Angle>
3.478

> <Pdih>
9.415

> <Idih>
0.000

> <Tether>
0.000

$$$$
VeraChem MOL file


 22 22  0  0  0  0  0  0  0  0999 V2000     
   18.4910   20.2727   23.2832 C   0  0  0  0  0  0  0  0  0  0  0  0
   18.2333   20.5909   22.2639 H   0  0  0  0  0  0  0  0  0  0  0  0
   17.6316   20.5426   23.9120 H   0  0  0  0  0  0  0  0  0  0  0  0
   19.7215   21.0491   23.8111 C   0  0  0  0  0  0  0  0  0  0  0  0
   19.4346   22.0988   23.9618 H   0  0  0  0  0  0  0  0  0  0  0  0
   19.9934   20.6683   24.8050 H   0  0  0  0  0  0  0  0  0  0  0  0
   20.9653   21.0163   22.8933 C   0  0  0  0  0  0  0  0  0  0  0  0
   21.7832   21.5405   23.4062 H   0  0  0  0  0  0  0  0  0  0  0  0
   20.7622   21.5964   21.9827 H   0  0  0  0  0  0  0  0  0  0  0  0
   21.4537   19.5996   22.5040 C   0  0  0  0  0  0  0  0  0  0  0  0
   22.4521   19.7033   22.0590 H   0  0  0  0  0  0  0  0  0  0  0  0
   21.5810   18.9747   23.3975 H   0  0  0  0  0  0  0  0  0  0  0  0
   20.5206   18.9055   21.4866 C   0  0  0  0  0  0  0  0  0  0  0  0
   20.0881   19.6774   20.8339 H   0  0  0  0  0  0  0  0  0  0  0  0
   19.3622   18.1028   22.1216 C   0  0  0  0  0  0  0  0  0  0  0  0
   18.6079   17.9366   21.3418 H   0  0  0  0  0  0  0  0  0  0  0  0
   19.7245   17.1061   22.4069 H   0  0  0  0  0  0  0  0  0  0  0  0
   18.6717   18.7383   23.3543 C   0  0  0  0  0  0  0  0  0  0  0  0
   17.6858   18.2680   23.4709 H   0  0  0  0  0  0  0  0  0  0  0  0
   19.2308   18.4782   24.2634 H   0  0  0  0  0  0  0  0  0  0  0  0
   21.2918   18.0127   20.6921 O   0  0  0  0  0  0  0  0  0  0  0  0
   21.9725   18.5536   20.2397 H   0  0  0  0  0  0  0  0  0  0  0  0
  1  2  1  0  0  0  0
  1  3  1  0  0  0  0
  1  4  1  0  0  0  0
  4  5  1  0  0  0  0
  4  6  1  0  0  0  0
  4  7  1  0  0  0  0
  7  8  1  0  0  0  0
  7  9  1  0  0  0  0
  7 10  1  0  0  0  0
 10 11  1  0  0  0  0
 10 12  1  0  0  0  0
 10 13  1  0  0  0  0
 13 14  1  0  0  0  0
 13 15  1  0  0  0  0
 15 16  1  0  0  0  0
 15 17  1  0  0  0  0
  1 18  1  0  0  0  0
 15 18  1  0  0  0  0
 18 19  1  0  0  0  0
 18 20  1  0  0  0  0
 13 21  1  0  0  0  0
 21 22  1  0  0  0  0
M  END
> <VConfSearch Rank>
810

> <Conf_Id>
144

> <Delta U+W>
-3.291

> <U+W>
3.132

> <U>
5.411

> <W>
-2.279

> <W(PB)>
-4.300

> <W(SA)>
2.021

> <Valence>
11.909

> <Coulomb>
-8.733

> <VdW>
2.236

> <VdW6>
-8.936

> <VdW12>
11.172

> <Bond>
0.223

> <Angle>
2.457

> <Pdih>
9.228

> <Idih>
0.000

> <Tether>
0.000

$$$$
VeraChem MOL file


 22 22  0  0  0  0  0  0  0  0999 V2000     
   21.1115   18.3728   23.1406 C   0  0  0  0  0  0  0  0  0  0  0  0
   21.6510   17.5666   23.6562 H   0  0  0  0  0  0  0  0  0  0  0  0
   21.7584   18.6893   22.3111 H   0  0  0  0  0  0  0  0  0  0  0  0
   20.9015   19.5280   24.1473 C   0  0  0  0  0  0  0  0  0  0  0  0
   20.0218   19.3149   24.7699 H   0  0  0  0  0  0  0  0  0  0  0  0
   21.7524   19.5533   24.8418 H   0  0  0  0  0  0  0  0  0  0  0  0
   20.7614   20.9333   23.5139 C   0  0  0  0  0  0  0  0  0  0  0  0
   21.7636   21.3412   23.3238 H   0  0  0  0  0  0  0  0  0  0  0  0
   20.3044   21.6001   24.2579 H   0  0  0  0  0  0  0  0  0  0  0  0
   19.9498   21.0155   22.1976 C   0  0  0  0  0  0  0  0  0  0  0  0
   19.6535   22.0629   22.0505 H   0  0  0  0  0  0  0  0  0  0  0  0
   20.6069   20.7707   21.3531 H   0  0  0  0  0  0  0  0  0  0  0  0
   18.6963   20.1132   22.1477 C   0  0  0  0  0  0  0  0  0  0  0  0
   18.2500   20.0473   23.1501 H   0  0  0  0  0  0  0  0  0  0  0  0
   19.0092   18.6927   21.6248 C   0  0  0  0  0  0  0  0  0  0  0  0
   18.0633   18.1939   21.3745 H   0  0  0  0  0  0  0  0  0  0  0  0
   19.5724   18.7640   20.6853 H   0  0  0  0  0  0  0  0  0  0  0  0
   19.7813   17.7849   22.6114 C   0  0  0  0  0  0  0  0  0  0  0  0
   19.1306   17.5332   23.4600 H   0  0  0  0  0  0  0  0  0  0  0  0
   19.9955   16.8333   22.1061 H   0  0  0  0  0  0  0  0  0  0  0  0
   17.7542   20.7058   21.2637 O   0  0  0  0  0  0  0  0  0  0  0  0
   18.1871   20.7486   20.3862 H   0  0  0  0  0  0  0  0  0  0  0  0
  1  2  1  0  0  0  0
  1  3  1  0  0  0  0
  1  4  1  0  0  0  0
  4  5  1  0  0  0  0
  4  6  1  0  0  0  0
  4  7  1  0  0  0  0
  7  8  1  0  0  0  0
  7  9  1  0  0  0  0
  7 10  1  0  0  0  0
 10 11  1  0  0  0  0
 10 12  1  0  0  0  0
 10 13  1  0  0  0  0
 13 14  1  0  0  0  0
 13 15  1  0  0  0  0
 15 16  1  0  0  0  0
 15 17  1  0  0  0  0
  1 18  1  0  0  0  0
 15 18  1  0  0  0  0
 18 19  1  0  0  0  0
 18 20  1  0  0  0  0
 13 21  1  0  0  0  0
 21 22  1  0  0  0  0
M  END
> <VConfSearch Rank>
811

> <Conf_Id>
76

> <Delta U+W>
-3.175

> <U+W>
3.248

> <U>
5.336

> <W>
-2.088

> <W(PB)>
-4.098

> <W(SA)>
2.010

> <Valence>
12.390

> <Coulomb>
-9.270

> <VdW>
2.216

> <VdW6>
-8.967

> <VdW12>
11.183

> <Bond>
0.218

> <Angle>
2.426

> <Pdih>
9.745

> <Idih>
0.000

> <Tether>
0.000

$$$$
VeraChem MOL file


 22 22  0  0  0  0  0  0  0  0999 V2000     
   18.9084   20.2257   24.0010 C   0  0  0  0  0  0  0  0  0  0  0  0
   17.8546   19.9568   24.1555 H   0  0  0  0  0  0  0  0  0  0  0  0
   19.1666   20.9050   24.8249 H   0  0  0  0  0  0  0  0  0  0  0  0
   19.0205   20.9950   22.6630 C   0  0  0  0  0  0  0  0  0  0  0  0
   18.3174   20.5684   21.9349 H   0  0  0  0  0  0  0  0  0  0  0  0
   18.6777   22.0246   22.8337 H   0  0  0  0  0  0  0  0  0  0  0  0
   20.4386   21.0334   22.0471 C   0  0  0  0  0  0  0  0  0  0  0  0
   21.2048   21.1272   22.8288 H   0  0  0  0  0  0  0  0  0  0  0  0
   20.5187   21.9396   21.4317 H   0  0  0  0  0  0  0  0  0  0  0  0
   20.7292   19.8155   21.1337 C   0  0  0  0  0  0  0  0  0  0  0  0
   19.9119   19.7042   20.4098 H   0  0  0  0  0  0  0  0  0  0  0  0
   21.6247   20.0316   20.5362 H   0  0  0  0  0  0  0  0  0  0  0  0
   20.9487   18.4627   21.8484 C   0  0  0  0  0  0  0  0  0  0  0  0
   20.9581   17.6892   21.0669 H   0  0  0  0  0  0  0  0  0  0  0  0
   19.8490   18.0689   22.8663 C   0  0  0  0  0  0  0  0  0  0  0  0
   18.8709   18.0501   22.3685 H   0  0  0  0  0  0  0  0  0  0  0  0
   20.0420   17.0345   23.1785 H   0  0  0  0  0  0  0  0  0  0  0  0
   19.7801   18.9545   24.1375 C   0  0  0  0  0  0  0  0  0  0  0  0
   19.3751   18.3554   24.9643 H   0  0  0  0  0  0  0  0  0  0  0  0
   20.7922   19.2393   24.4537 H   0  0  0  0  0  0  0  0  0  0  0  0
   22.2238   18.4678   22.4826 O   0  0  0  0  0  0  0  0  0  0  0  0
   22.2994   17.6185   22.9635 H   0  0  0  0  0  0  0  0  0  0  0  0
  1  2  1  0  0  0  0
  1  3  1  0  0  0  0
  1  4  1  0  0  0  0
  4  5  1  0  0  0  0
  4  6  1  0  0  0  0
  4  7  1  0  0  0  0
  7  8  1  0  0  0  0
  7  9  1  0  0  0  0
  7 10  1  0  0  0  0
 10 11  1  0  0  0  0
 10 12  1  0  0  0  0
 10 13  1  0  0  0  0
 13 14  1  0  0  0  0
 13 15  1  0  0  0  0
 15 16  1  0  0  0  0
 15 17  1  0  0  0  0
  1 18  1  0  0  0  0
 15 18  1  0  0  0  0
 18 19  1  0  0  0  0
 18 20  1  0  0  0  0
 13 21  1  0  0  0  0
 21 22  1  0  0  0  0
M  END
> <VConfSearch Rank>
812

> <Conf_Id>
95

> <Delta U+W>
-2.289

> <U+W>
4.134

> <U>
6.373

> <W>
-2.240

> <W(PB)>
-4.254

> <W(SA)>
2.015

> <Valence>
12.093

> <Coulomb>
-8.058

> <VdW>
2.339

> <VdW6>
-9.683

> <VdW12>
12.022

> <Bond>
0.268

> <Angle>
3.005

> <Pdih>
8.820

> <Idih>
0.000

> <Tether>
0.000

$$$$
VeraChem MOL file


 22 22  0  0  0  0  0  0  0  0999 V2000     
   21.2388   20.9518   23.3975 C   0  0  0  0  0  0  0  0  0  0  0  0
   21.9405   20.8563   24.2373 H   0  0  0  0  0  0  0  0  0  0  0  0
   21.3880   21.9643   22.9983 H   0  0  0  0  0  0  0  0  0  0  0  0
   19.7995   20.8397   23.9542 C   0  0  0  0  0  0  0  0  0  0  0  0
   19.7810   20.1124   24.7771 H   0  0  0  0  0  0  0  0  0  0  0  0
   19.5357   21.8041   24.4093 H   0  0  0  0  0  0  0  0  0  0  0  0
   18.7208   20.4648   22.9114 C   0  0  0  0  0  0  0  0  0  0  0  0
   18.9237   20.9466   21.9452 H   0  0  0  0  0  0  0  0  0  0  0  0
   17.7590   20.8675   23.2570 H   0  0  0  0  0  0  0  0  0  0  0  0
   18.5586   18.9329   22.7439 C   0  0  0  0  0  0  0  0  0  0  0  0
   18.4436   18.4737   23.7342 H   0  0  0  0  0  0  0  0  0  0  0  0
   17.6144   18.7351   22.2201 H   0  0  0  0  0  0  0  0  0  0  0  0
   19.6953   18.2050   21.9903 C   0  0  0  0  0  0  0  0  0  0  0  0
   19.5174   17.1268   22.1118 H   0  0  0  0  0  0  0  0  0  0  0  0
   21.1234   18.4920   22.5180 C   0  0  0  0  0  0  0  0  0  0  0  0
   21.1896   18.2292   23.5815 H   0  0  0  0  0  0  0  0  0  0  0  0
   21.8052   17.8075   21.9970 H   0  0  0  0  0  0  0  0  0  0  0  0
   21.6307   19.9404   22.2939 C   0  0  0  0  0  0  0  0  0  0  0  0
   22.7267   19.9234   22.2257 H   0  0  0  0  0  0  0  0  0  0  0  0
   21.2855   20.3101   21.3193 H   0  0  0  0  0  0  0  0  0  0  0  0
   19.6152   18.5142   20.6022 O   0  0  0  0  0  0  0  0  0  0  0  0
   18.6939   18.3321   20.3260 H   0  0  0  0  0  0  0  0  0  0  0  0
  1  2  1  0  0  0  0
  1  3  1  0  0  0  0
  1  4  1  0  0  0  0
  4  5  1  0  0  0  0
  4  6  1  0  0  0  0
  4  7  1  0  0  0  0
  7  8  1  0  0  0  0
  7  9  1  0  0  0  0
  7 10  1  0  0  0  0
 10 11  1  0  0  0  0
 10 12  1  0  0  0  0
 10 13  1  0  0  0  0
 13 14  1  0  0  0  0
 13 15  1  0  0  0  0
 15 16  1  0  0  0  0
 15 17  1  0  0  0  0
  1 18  1  0  0  0  0
 15 18  1  0  0  0  0
 18 19  1  0  0  0  0
 18 20  1  0  0  0  0
 13 21  1  0  0  0  0
 21 22  1  0  0  0  0
M  END
> <VConfSearch Rank>
813

> <Conf_Id>
41

> <Delta U+W>
-2.114

> <U+W>
4.310

> <U>
6.598

> <W>
-2.289

> <W(PB)>
-4.294

> <W(SA)>
2.005

> <Valence>
12.082

> <Coulomb>
-7.801

> <VdW>
2.317

> <VdW6>
-9.658

> <VdW12>
11.975

> <Bond>
0.267

> <Angle>
3.051

> <Pdih>
8.764

> <Idih>
0.000

> <Tether>
0.000

$$$$
VeraChem MOL file


 22 22  0  0  0  0  0  0  0  0999 V2000     
   21.4075   18.5799   22.3813 C   0  0  0  0  0  0  0  0  0  0  0  0
   22.1187   17.7555   22.2361 H   0  0  0  0  0  0  0  0  0  0  0  0
   21.7901   19.4243   21.7915 H   0  0  0  0  0  0  0  0  0  0  0  0
   21.3877   18.9291   23.8864 C   0  0  0  0  0  0  0  0  0  0  0  0
   20.9448   18.0973   24.4508 H   0  0  0  0  0  0  0  0  0  0  0  0
   22.4241   19.0150   24.2401 H   0  0  0  0  0  0  0  0  0  0  0  0
   20.6479   20.2394   24.2340 C   0  0  0  0  0  0  0  0  0  0  0  0
   21.2152   21.0943   23.8425 H   0  0  0  0  0  0  0  0  0  0  0  0
   20.6591   20.3547   25.3262 H   0  0  0  0  0  0  0  0  0  0  0  0
   19.1743   20.3136   23.7502 C   0  0  0  0  0  0  0  0  0  0  0  0
   18.6256   19.4208   24.0758 H   0  0  0  0  0  0  0  0  0  0  0  0
   18.6980   21.1581   24.2646 H   0  0  0  0  0  0  0  0  0  0  0  0
   18.9694   20.5315   22.2289 C   0  0  0  0  0  0  0  0  0  0  0  0
   17.9336   20.8761   22.0964 H   0  0  0  0  0  0  0  0  0  0  0  0
   19.1215   19.2710   21.3381 C   0  0  0  0  0  0  0  0  0  0  0  0
   18.1210   18.8508   21.1723 H   0  0  0  0  0  0  0  0  0  0  0  0
   19.4742   19.5759   20.3441 H   0  0  0  0  0  0  0  0  0  0  0  0
   20.0276   18.1265   21.8557 C   0  0  0  0  0  0  0  0  0  0  0  0
   19.5018   17.5576   22.6343 H   0  0  0  0  0  0  0  0  0  0  0  0
   20.1816   17.4202   21.0286 H   0  0  0  0  0  0  0  0  0  0  0  0
   19.8307   21.5621   21.7526 O   0  0  0  0  0  0  0  0  0  0  0  0
   19.6297   21.6819   20.8022 H   0  0  0  0  0  0  0  0  0  0  0  0
  1  2  1  0  0  0  0
  1  3  1  0  0  0  0
  1  4  1  0  0  0  0
  4  5  1  0  0  0  0
  4  6  1  0  0  0  0
  4  7  1  0  0  0  0
  7  8  1  0  0  0  0
  7  9  1  0  0  0  0
  7 10  1  0  0  0  0
 10 11  1  0  0  0  0
 10 12  1  0  0  0  0
 10 13  1  0  0  0  0
 13 14  1  0  0  0  0
 13 15  1  0  0  0  0
 15 16  1  0  0  0  0
 15 17  1  0  0  0  0
  1 18  1  0  0  0  0
 15 18  1  0  0  0  0
 18 19  1  0  0  0  0
 18 20  1  0  0  0  0
 13 21  1  0  0  0  0
 21 22  1  0  0  0  0
M  END
> <VConfSearch Rank>
814

> <Conf_Id>
104

> <Delta U+W>
-1.172

> <U+W>
5.252

> <U>
7.482

> <W>
-2.230

> <W(PB)>
-4.220

> <W(SA)>
1.990

> <Valence>
12.309

> <Coulomb>
-7.084

> <VdW>
2.258

> <VdW6>
-9.770

> <VdW12>
12.028

> <Bond>
0.284

> <Angle>
3.491

> <Pdih>
8.535

> <Idih>
0.000

> <Tether>
0.000

$$$$
VeraChem MOL file


 22 22  0  0  0  0  0  0  0  0999 V2000     
   20.1271   20.1944   24.1966 C   0  0  0  0  0  0  0  0  0  0  0  0
   20.9850   19.5687   24.4778 H   0  0  0  0  0  0  0  0  0  0  0  0
   19.8679   20.7727   25.0940 H   0  0  0  0  0  0  0  0  0  0  0  0
   18.9054   19.3224   23.8270 C   0  0  0  0  0  0  0  0  0  0  0  0
   18.4236   18.9832   24.7544 H   0  0  0  0  0  0  0  0  0  0  0  0
   18.1520   19.9452   23.3271 H   0  0  0  0  0  0  0  0  0  0  0  0
   19.2102   18.0690   22.9680 C   0  0  0  0  0  0  0  0  0  0  0  0
   18.3033   17.8023   22.4080 H   0  0  0  0  0  0  0  0  0  0  0  0
   19.3952   17.2220   23.6428 H   0  0  0  0  0  0  0  0  0  0  0  0
   20.4093   18.1544   21.9851 C   0  0  0  0  0  0  0  0  0  0  0  0
   21.3429   18.0132   22.5449 H   0  0  0  0  0  0  0  0  0  0  0  0
   20.3502   17.2963   21.3032 H   0  0  0  0  0  0  0  0  0  0  0  0
   20.5311   19.4382   21.1324 C   0  0  0  0  0  0  0  0  0  0  0  0
   21.1443   19.1903   20.2541 H   0  0  0  0  0  0  0  0  0  0  0  0
   21.2554   20.5846   21.8737 C   0  0  0  0  0  0  0  0  0  0  0  0
   22.2388   20.2245   22.2027 H   0  0  0  0  0  0  0  0  0  0  0  0
   21.4605   21.3842   21.1499 H   0  0  0  0  0  0  0  0  0  0  0  0
   20.5148   21.2002   23.0867 C   0  0  0  0  0  0  0  0  0  0  0  0
   21.1690   21.9648   23.5274 H   0  0  0  0  0  0  0  0  0  0  0  0
   19.6213   21.7389   22.7433 H   0  0  0  0  0  0  0  0  0  0  0  0
   19.2518   19.8696   20.6951 O   0  0  0  0  0  0  0  0  0  0  0  0
   18.7444   19.9884   21.5226 H   0  0  0  0  0  0  0  0  0  0  0  0
  1  2  1  0  0  0  0
  1  3  1  0  0  0  0
  1  4  1  0  0  0  0
  4  5  1  0  0  0  0
  4  6  1  0  0  0  0
  4  7  1  0  0  0  0
  7  8  1  0  0  0  0
  7  9  1  0  0  0  0
  7 10  1  0  0  0  0
 10 11  1  0  0  0  0
 10 12  1  0  0  0  0
 10 13  1  0  0  0  0
 13 14  1  0  0  0  0
 13 15  1  0  0  0  0
 15 16  1  0  0  0  0
 15 17  1  0  0  0  0
  1 18  1  0  0  0  0
 15 18  1  0  0  0  0
 18 19  1  0  0  0  0
 18 20  1  0  0  0  0
 13 21  1  0  0  0  0
 21 22  1  0  0  0  0
M  END
> <VConfSearch Rank>
815

> <Conf_Id>
99

> <Delta U+W>
-3.852

> <U+W>
2.572

> <U>
3.922

> <W>
-1.350

> <W(PB)>
-3.345

> <W(SA)>
1.995

> <Valence>
12.571

> <Coulomb>
-10.581

> <VdW>
1.932

> <VdW6>
-10.483

> <VdW12>
12.415

> <Bond>
0.268

> <Angle>
3.728

> <Pdih>
8.575

> <Idih>
0.000

> <Tether>
0.000

$$$$
VeraChem MOL file


 22 22  0  0  0  0  0  0  0  0999 V2000     
   20.6308   20.9966   23.3835 C   0  0  0  0  0  0  0  0  0  0  0  0
   21.4326   21.6135   23.8123 H   0  0  0  0  0  0  0  0  0  0  0  0
   19.7334   21.6282   23.4276 H   0  0  0  0  0  0  0  0  0  0  0  0
   20.4519   19.7463   24.2937 C   0  0  0  0  0  0  0  0  0  0  0  0
   21.1762   19.8220   25.1165 H   0  0  0  0  0  0  0  0  0  0  0  0
   19.4675   19.7700   24.7801 H   0  0  0  0  0  0  0  0  0  0  0  0
   20.6588   18.3718   23.6076 C   0  0  0  0  0  0  0  0  0  0  0  0
   20.6979   17.5982   24.3866 H   0  0  0  0  0  0  0  0  0  0  0  0
   21.6488   18.3385   23.1362 H   0  0  0  0  0  0  0  0  0  0  0  0
   19.5729   17.9543   22.5774 C   0  0  0  0  0  0  0  0  0  0  0  0
   20.0098   17.2071   21.9024 H   0  0  0  0  0  0  0  0  0  0  0  0
   18.7711   17.4282   23.1125 H   0  0  0  0  0  0  0  0  0  0  0  0
   18.9126   19.0623   21.7203 C   0  0  0  0  0  0  0  0  0  0  0  0
   18.3582   18.5566   20.9167 H   0  0  0  0  0  0  0  0  0  0  0  0
   19.8748   20.0669   21.0397 C   0  0  0  0  0  0  0  0  0  0  0  0
   20.3471   19.5694   20.1829 H   0  0  0  0  0  0  0  0  0  0  0  0
   19.2630   20.8700   20.6077 H   0  0  0  0  0  0  0  0  0  0  0  0
   20.9935   20.7128   21.9035 C   0  0  0  0  0  0  0  0  0  0  0  0
   21.9002   20.0969   21.8559 H   0  0  0  0  0  0  0  0  0  0  0  0
   21.2790   21.6613   21.4287 H   0  0  0  0  0  0  0  0  0  0  0  0
   17.9635   19.7682   22.5038 O   0  0  0  0  0  0  0  0  0  0  0  0
   18.5025   20.1970   23.1985 H   0  0  0  0  0  0  0  0  0  0  0  0
  1  2  1  0  0  0  0
  1  3  1  0  0  0  0
  1  4  1  0  0  0  0
  4  5  1  0  0  0  0
  4  6  1  0  0  0  0
  4  7  1  0  0  0  0
  7  8  1  0  0  0  0
  7  9  1  0  0  0  0
  7 10  1  0  0  0  0
 10 11  1  0  0  0  0
 10 12  1  0  0  0  0
 10 13  1  0  0  0  0
 13 14  1  0  0  0  0
 13 15  1  0  0  0  0
 15 16  1  0  0  0  0
 15 17  1  0  0  0  0
  1 18  1  0  0  0  0
 15 18  1  0  0  0  0
 18 19  1  0  0  0  0
 18 20  1  0  0  0  0
 13 21  1  0  0  0  0
 21 22  1  0  0  0  0
M  END
> <VConfSearch Rank>
816

> <Conf_Id>
98

> <Delta U+W>
0.930

> <U+W>
7.353

> <U>
8.455

> <W>
-1.102

> <W(PB)>
-3.101

> <W(SA)>
2.000

> <Valence>
15.601

> <Coulomb>
-10.573

> <VdW>
3.427

> <VdW6>
-11.360

> <VdW12>
14.787

> <Bond>
0.471

> <Angle>
5.445

> <Pdih>
9.685

> <Idih>
0.000

> <Tether>
0.000

$$$$
VeraChem MOL file


 22 22  0  0  0  0  0  0  0  0999 V2000     
   18.4151   19.4771   23.2789 C   0  0  0  0  0  0  0  0  0  0  0  0
   18.8535   19.6235   24.2744 H   0  0  0  0  0  0  0  0  0  0  0  0
   17.3292   19.4653   23.4445 H   0  0  0  0  0  0  0  0  0  0  0  0
   18.8432   18.0982   22.7154 C   0  0  0  0  0  0  0  0  0  0  0  0
   18.4928   17.3304   23.4187 H   0  0  0  0  0  0  0  0  0  0  0  0
   18.3112   17.9043   21.7742 H   0  0  0  0  0  0  0  0  0  0  0  0
   20.3670   17.8905   22.4928 C   0  0  0  0  0  0  0  0  0  0  0  0
   20.6061   17.9740   21.4247 H   0  0  0  0  0  0  0  0  0  0  0  0
   20.6135   16.8533   22.7574 H   0  0  0  0  0  0  0  0  0  0  0  0
   21.2854   18.8422   23.3043 C   0  0  0  0  0  0  0  0  0  0  0  0
   20.9994   18.8024   24.3628 H   0  0  0  0  0  0  0  0  0  0  0  0
   22.3083   18.4435   23.2738 H   0  0  0  0  0  0  0  0  0  0  0  0
   21.3090   20.3270   22.8366 C   0  0  0  0  0  0  0  0  0  0  0  0
   21.2168   20.9644   23.7278 H   0  0  0  0  0  0  0  0  0  0  0  0
   20.2035   20.7381   21.8321 C   0  0  0  0  0  0  0  0  0  0  0  0
   20.3988   21.7621   21.4881 H   0  0  0  0  0  0  0  0  0  0  0  0
   20.2736   20.1165   20.9314 H   0  0  0  0  0  0  0  0  0  0  0  0
   18.7558   20.6899   22.3813 C   0  0  0  0  0  0  0  0  0  0  0  0
   18.5633   21.6056   22.9568 H   0  0  0  0  0  0  0  0  0  0  0  0
   18.0600   20.7162   21.5316 H   0  0  0  0  0  0  0  0  0  0  0  0
   22.5645   20.5846   22.2180 O   0  0  0  0  0  0  0  0  0  0  0  0
   22.5751   21.5366   21.9859 H   0  0  0  0  0  0  0  0  0  0  0  0
  1  2  1  0  0  0  0
  1  3  1  0  0  0  0
  1  4  1  0  0  0  0
  4  5  1  0  0  0  0
  4  6  1  0  0  0  0
  4  7  1  0  0  0  0
  7  8  1  0  0  0  0
  7  9  1  0  0  0  0
  7 10  1  0  0  0  0
 10 11  1  0  0  0  0
 10 12  1  0  0  0  0
 10 13  1  0  0  0  0
 13 14  1  0  0  0  0
 13 15  1  0  0  0  0
 15 16  1  0  0  0  0
 15 17  1  0  0  0  0
  1 18  1  0  0  0  0
 15 18  1  0  0  0  0
 18 19  1  0  0  0  0
 18 20  1  0  0  0  0
 13 21  1  0  0  0  0
 21 22  1  0  0  0  0
M  END
> <VConfSearch Rank>
817

> <Conf_Id>
141

> <Delta U+W>
0.000

> <U+W>
6.423

> <U>
8.781

> <W>
-2.358

> <W(PB)>
-4.373

> <W(SA)>
2.015

> <Valence>
13.328

> <Coulomb>
-8.387

> <VdW>
3.840

> <VdW6>
-9.744

> <VdW12>
13.584

> <Bond>
0.436

> <Angle>
3.478

> <Pdih>
9.415

> <Idih>
0.000

> <Tether>
0.000

$$$$
VeraChem MOL file


 22 22  0  0  0  0  0  0  0  0999 V2000     
   21.7172   19.5217   22.4380 C   0  0  0  0  0  0  0  0  0  0  0  0
   21.6011   20.0680   21.4921 H   0  0  0  0  0  0  0  0  0  0  0  0
   22.7975   19.3755   22.5737 H   0  0  0  0  0  0  0  0  0  0  0  0
   21.0609   18.1224   22.3532 C   0  0  0  0  0  0  0  0  0  0  0  0
   21.6432   17.5046   21.6560 H   0  0  0  0  0  0  0  0  0  0  0  0
   21.1381   17.6243   23.3293 H   0  0  0  0  0  0  0  0  0  0  0  0
   19.5860   18.1129   21.8896 C   0  0  0  0  0  0  0  0  0  0  0  0
   19.2191   17.0785   21.9363 H   0  0  0  0  0  0  0  0  0  0  0  0
   19.5345   18.4015   20.8308 H   0  0  0  0  0  0  0  0  0  0  0  0
   18.6348   19.0125   22.7162 C   0  0  0  0  0  0  0  0  0  0  0  0
   17.6052   18.7442   22.4451 H   0  0  0  0  0  0  0  0  0  0  0  0
   18.7339   18.7987   23.7883 H   0  0  0  0  0  0  0  0  0  0  0  0
   18.8496   20.5180   22.4423 C   0  0  0  0  0  0  0  0  0  0  0  0
   19.1545   20.6368   21.3926 H   0  0  0  0  0  0  0  0  0  0  0  0
   19.9184   21.1870   23.3364 C   0  0  0  0  0  0  0  0  0  0  0  0
   20.2110   22.1289   22.8545 H   0  0  0  0  0  0  0  0  0  0  0  0
   19.4648   21.4685   24.2961 H   0  0  0  0  0  0  0  0  0  0  0  0
   21.1954   20.3600   23.6284 C   0  0  0  0  0  0  0  0  0  0  0  0
   21.9839   21.0548   23.9482 H   0  0  0  0  0  0  0  0  0  0  0  0
   21.0175   19.7009   24.4890 H   0  0  0  0  0  0  0  0  0  0  0  0
   17.6178   21.2005   22.6420 O   0  0  0  0  0  0  0  0  0  0  0  0
   16.9746   20.8122   22.0126 H   0  0  0  0  0  0  0  0  0  0  0  0
  1  2  1  0  0  0  0
  1  3  1  0  0  0  0
  1  4  1  0  0  0  0
  4  5  1  0  0  0  0
  4  6  1  0  0  0  0
  4  7  1  0  0  0  0
  7  8  1  0  0  0  0
  7  9  1  0  0  0  0
  7 10  1  0  0  0  0
 10 11  1  0  0  0  0
 10 12  1  0  0  0  0
 10 13  1  0  0  0  0
 13 14  1  0  0  0  0
 13 15  1  0  0  0  0
 15 16  1  0  0  0  0
 15 17  1  0  0  0  0
  1 18  1  0  0  0  0
 15 18  1  0  0  0  0
 18 19  1  0  0  0  0
 18 20  1  0  0  0  0
 13 21  1  0  0  0  0
 21 22  1  0  0  0  0
M  END
> <VConfSearch Rank>
818

> <Conf_Id>
144

> <Delta U+W>
-3.291

> <U+W>
3.132

> <U>
5.411

> <W>
-2.279

> <W(PB)>
-4.300

> <W(SA)>
2.021

> <Valence>
11.909

> <Coulomb>
-8.733

> <VdW>
2.236

> <VdW6>
-8.936

> <VdW12>
11.172

> <Bond>
0.223

> <Angle>
2.457

> <Pdih>
9.228

> <Idih>
0.000

> <Tether>
0.000

$$$$
VeraChem MOL file


 22 22  0  0  0  0  0  0  0  0999 V2000     
   19.5607   17.9040   22.2790 C   0  0  0  0  0  0  0  0  0  0  0  0
   19.6134   16.8411   22.0061 H   0  0  0  0  0  0  0  0  0  0  0  0
   18.4990   18.1184   22.4623 H   0  0  0  0  0  0  0  0  0  0  0  0
   20.0919   18.7313   21.0852 C   0  0  0  0  0  0  0  0  0  0  0  0
   21.1895   18.7597   21.1196 H   0  0  0  0  0  0  0  0  0  0  0  0
   19.8418   18.2090   20.1515 H   0  0  0  0  0  0  0  0  0  0  0  0
   19.5379   20.1734   20.9877 C   0  0  0  0  0  0  0  0  0  0  0  0
   18.5643   20.1486   20.4793 H   0  0  0  0  0  0  0  0  0  0  0  0
   20.2024   20.7517   20.3312 H   0  0  0  0  0  0  0  0  0  0  0  0
   19.3640   20.9341   22.3253 C   0  0  0  0  0  0  0  0  0  0  0  0
   19.2942   22.0059   22.0954 H   0  0  0  0  0  0  0  0  0  0  0  0
   18.3989   20.6621   22.7719 H   0  0  0  0  0  0  0  0  0  0  0  0
   20.4889   20.7006   23.3585 C   0  0  0  0  0  0  0  0  0  0  0  0
   21.4478   20.5724   22.8363 H   0  0  0  0  0  0  0  0  0  0  0  0
   20.2209   19.4734   24.2591 C   0  0  0  0  0  0  0  0  0  0  0  0
   20.9058   19.5103   25.1168 H   0  0  0  0  0  0  0  0  0  0  0  0
   19.2079   19.5399   24.6769 H   0  0  0  0  0  0  0  0  0  0  0  0
   20.3951   18.1004   23.5675 C   0  0  0  0  0  0  0  0  0  0  0  0
   21.4581   17.9388   23.3419 H   0  0  0  0  0  0  0  0  0  0  0  0
   20.1193   17.3167   24.2862 H   0  0  0  0  0  0  0  0  0  0  0  0
   20.5716   21.8463   24.1956 O   0  0  0  0  0  0  0  0  0  0  0  0
   19.7026   21.9275   24.6399 H   0  0  0  0  0  0  0  0  0  0  0  0
  1  2  1  0  0  0  0
  1  3  1  0  0  0  0
  1  4  1  0  0  0  0
  4  5  1  0  0  0  0
  4  6  1  0  0  0  0
  4  7  1  0  0  0  0
  7  8  1  0  0  0  0
  7  9  1  0  0  0  0
  7 10  1  0  0  0  0
 10 11  1  0  0  0  0
 10 12  1  0  0  0  0
 10 13  1  0  0  0  0
 13 14  1  0  0  0  0
 13 15  1  0  0  0  0
 15 16  1  0  0  0  0
 15 17  1  0  0  0  0
  1 18  1  0  0  0  0
 15 18  1  0  0  0  0
 18 19  1  0  0  0  0
 18 20  1  0  0  0  0
 13 21  1  0  0  0  0
 21 22  1  0  0  0  0
M  END
> <VConfSearch Rank>
819

> <Conf_Id>
76

> <Delta U+W>
-3.175

> <U+W>
3.248

> <U>
5.336

> <W>
-2.088

> <W(PB)>
-4.098

> <W(SA)>
2.010

> <Valence>
12.390

> <Coulomb>
-9.270

> <VdW>
2.216

> <VdW6>
-8.967

> <VdW12>
11.183

> <Bond>
0.218

> <Angle>
2.426

> <Pdih>
9.745

> <Idih>
0.000

> <Tether>
0.000

$$$$
VeraChem MOL file


 22 22  0  0  0  0  0  0  0  0999 V2000     
   19.3253   19.3682   20.9764 C   0  0  0  0  0  0  0  0  0  0  0  0
   18.3470   18.9390   20.7208 H   0  0  0  0  0  0  0  0  0  0  0  0
   19.7443   19.7391   20.0310 H   0  0  0  0  0  0  0  0  0  0  0  0
   20.2276   18.2312   21.5128 C   0  0  0  0  0  0  0  0  0  0  0  0
   19.6218   17.5296   22.1020 H   0  0  0  0  0  0  0  0  0  0  0  0
   20.5926   17.6533   20.6528 H   0  0  0  0  0  0  0  0  0  0  0  0
   21.4381   18.6982   22.3542 C   0  0  0  0  0  0  0  0  0  0  0  0
   21.8643   19.6262   21.9494 H   0  0  0  0  0  0  0  0  0  0  0  0
   22.2264   17.9382   22.2687 H   0  0  0  0  0  0  0  0  0  0  0  0
   21.0978   18.8579   23.8578 C   0  0  0  0  0  0  0  0  0  0  0  0
   20.6089   17.9430   24.2162 H   0  0  0  0  0  0  0  0  0  0  0  0
   22.0360   18.9315   24.4233 H   0  0  0  0  0  0  0  0  0  0  0  0
   20.2185   20.0721   24.2339 C   0  0  0  0  0  0  0  0  0  0  0  0
   19.9241   19.9370   25.2847 H   0  0  0  0  0  0  0  0  0  0  0  0
   18.9144   20.2217   23.4109 C   0  0  0  0  0  0  0  0  0  0  0  0
   18.3115   19.3088   23.4999 H   0  0  0  0  0  0  0  0  0  0  0  0
   18.3181   21.0166   23.8770 H   0  0  0  0  0  0  0  0  0  0  0  0
   19.1162   20.5801   21.9155 C   0  0  0  0  0  0  0  0  0  0  0  0
   18.2349   21.1321   21.5622 H   0  0  0  0  0  0  0  0  0  0  0  0
   19.9584   21.2758   21.8052 H   0  0  0  0  0  0  0  0  0  0  0  0
   20.9956   21.2619   24.1405 O   0  0  0  0  0  0  0  0  0  0  0  0
   20.3903   22.0063   24.3349 H   0  0  0  0  0  0  0  0  0  0  0  0
  1  2  1  0  0  0  0
  1  3  1  0  0  0  0
  1  4  1  0  0  0  0
  4  5  1  0  0  0  0
  4  6  1  0  0  0  0
  4  7  1  0  0  0  0
  7  8  1  0  0  0  0
  7  9  1  0  0  0  0
  7 10  1  0  0  0  0
 10 11  1  0  0  0  0
 10 12  1  0  0  0  0
 10 13  1  0  0  0  0
 13 14  1  0  0  0  0
 13 15  1  0  0  0  0
 15 16  1  0  0  0  0
 15 17  1  0  0  0  0
  1 18  1  0  0  0  0
 15 18  1  0  0  0  0
 18 19  1  0  0  0  0
 18 20  1  0  0  0  0
 13 21  1  0  0  0  0
 21 22  1  0  0  0  0
M  END
> <VConfSearch Rank>
820

> <Conf_Id>
95

> <Delta U+W>
-2.289

> <U+W>
4.134

> <U>
6.373

> <W>
-2.240

> <W(PB)>
-4.254

> <W(SA)>
2.015

> <Valence>
12.093

> <Coulomb>
-8.058

> <VdW>
2.339

> <VdW6>
-9.683

> <VdW12>
12.022

> <Bond>
0.268

> <Angle>
3.005

> <Pdih>
8.820

> <Idih>
0.000

> <Tether>
0.000

$$$$
VeraChem MOL file


 22 22  0  0  0  0  0  0  0  0999 V2000     
   18.9034   20.8714   23.6047 C   0  0  0  0  0  0  0  0  0  0  0  0
   18.4473   21.7847   23.1991 H   0  0  0  0  0  0  0  0  0  0  0  0
   18.5369   20.7884   24.6370 H   0  0  0  0  0  0  0  0  0  0  0  0
   20.4380   21.0680   23.6323 C   0  0  0  0  0  0  0  0  0  0  0  0
   20.7480   21.6517   22.7550 H   0  0  0  0  0  0  0  0  0  0  0  0
   20.6845   21.6923   24.5020 H   0  0  0  0  0  0  0  0  0  0  0  0
   21.2648   19.7629   23.7008 C   0  0  0  0  0  0  0  0  0  0  0  0
   20.7726   19.0187   24.3417 H   0  0  0  0  0  0  0  0  0  0  0  0
   22.2247   19.9931   24.1825 H   0  0  0  0  0  0  0  0  0  0  0  0
   21.5687   19.1740   22.3000 C   0  0  0  0  0  0  0  0  0  0  0  0
   21.9796   19.9651   21.6595 H   0  0  0  0  0  0  0  0  0  0  0  0
   22.3720   18.4323   22.3979 H   0  0  0  0  0  0  0  0  0  0  0  0
   20.3804   18.5110   21.5664 C   0  0  0  0  0  0  0  0  0  0  0  0
   20.7145   18.3091   20.5385 H   0  0  0  0  0  0  0  0  0  0  0  0
   19.1018   19.3802   21.4660 C   0  0  0  0  0  0  0  0  0  0  0  0
   19.3322   20.3289   20.9646 H   0  0  0  0  0  0  0  0  0  0  0  0
   18.4027   18.8532   20.8039 H   0  0  0  0  0  0  0  0  0  0  0  0
   18.3801   19.6498   22.8120 C   0  0  0  0  0  0  0  0  0  0  0  0
   17.3117   19.8091   22.6135 H   0  0  0  0  0  0  0  0  0  0  0  0
   18.4266   18.7547   23.4463 H   0  0  0  0  0  0  0  0  0  0  0  0
   20.0778   17.2653   22.1873 O   0  0  0  0  0  0  0  0  0  0  0  0
   20.9181   16.7660   22.2406 H   0  0  0  0  0  0  0  0  0  0  0  0
  1  2  1  0  0  0  0
  1  3  1  0  0  0  0
  1  4  1  0  0  0  0
  4  5  1  0  0  0  0
  4  6  1  0  0  0  0
  4  7  1  0  0  0  0
  7  8  1  0  0  0  0
  7  9  1  0  0  0  0
  7 10  1  0  0  0  0
 10 11  1  0  0  0  0
 10 12  1  0  0  0  0
 10 13  1  0  0  0  0
 13 14  1  0  0  0  0
 13 15  1  0  0  0  0
 15 16  1  0  0  0  0
 15 17  1  0  0  0  0
  1 18  1  0  0  0  0
 15 18  1  0  0  0  0
 18 19  1  0  0  0  0
 18 20  1  0  0  0  0
 13 21  1  0  0  0  0
 21 22  1  0  0  0  0
M  END
> <VConfSearch Rank>
821

> <Conf_Id>
41

> <Delta U+W>
-2.114

> <U+W>
4.310

> <U>
6.598

> <W>
-2.289

> <W(PB)>
-4.294

> <W(SA)>
2.005

> <Valence>
12.082

> <Coulomb>
-7.801

> <VdW>
2.317

> <VdW6>
-9.658

> <VdW12>
11.975

> <Bond>
0.267

> <Angle>
3.051

> <Pdih>
8.764

> <Idih>
0.000

> <Tether>
0.000

$$$$
VeraChem MOL file


 22 22  0  0  0  0  0  0  0  0999 V2000     
   18.9146   19.5311   21.5298 C   0  0  0  0  0  0  0  0  0  0  0  0
   17.9803   19.5487   20.9523 H   0  0  0  0  0  0  0  0  0  0  0  0
   19.7170   19.7895   20.8252 H   0  0  0  0  0  0  0  0  0  0  0  0
   19.1072   18.0986   22.0759 C   0  0  0  0  0  0  0  0  0  0  0  0
   18.3319   17.8830   22.8236 H   0  0  0  0  0  0  0  0  0  0  0  0
   18.9419   17.3857   21.2567 H   0  0  0  0  0  0  0  0  0  0  0  0
   20.5000   17.8226   22.6834 C   0  0  0  0  0  0  0  0  0  0  0  0
   21.2547   17.8308   21.8857 H   0  0  0  0  0  0  0  0  0  0  0  0
   20.5001   16.7975   23.0775 H   0  0  0  0  0  0  0  0  0  0  0  0
   20.9241   18.7850   23.8258 C   0  0  0  0  0  0  0  0  0  0  0  0
   20.1352   18.8370   24.5868 H   0  0  0  0  0  0  0  0  0  0  0  0
   21.7924   18.3407   24.3290 H   0  0  0  0  0  0  0  0  0  0  0  0
   21.3313   20.2166   23.3913 C   0  0  0  0  0  0  0  0  0  0  0  0
   21.8933   20.6527   24.2299 H   0  0  0  0  0  0  0  0  0  0  0  0
   20.1627   21.1939   23.1010 C   0  0  0  0  0  0  0  0  0  0  0  0
   19.9762   21.7787   24.0111 H   0  0  0  0  0  0  0  0  0  0  0  0
   20.4868   21.9260   22.3497 H   0  0  0  0  0  0  0  0  0  0  0  0
   18.8100   20.5883   22.6512 C   0  0  0  0  0  0  0  0  0  0  0  0
   18.2861   20.1612   23.5170 H   0  0  0  0  0  0  0  0  0  0  0  0
   18.1740   21.4118   22.2992 H   0  0  0  0  0  0  0  0  0  0  0  0
   22.2052   20.1664   22.2667 O   0  0  0  0  0  0  0  0  0  0  0  0
   22.4587   21.0898   22.0642 H   0  0  0  0  0  0  0  0  0  0  0  0
  1  2  1  0  0  0  0
  1  3  1  0  0  0  0
  1  4  1  0  0  0  0
  4  5  1  0  0  0  0
  4  6  1  0  0  0  0
  4  7  1  0  0  0  0
  7  8  1  0  0  0  0
  7  9  1  0  0  0  0
  7 10  1  0  0  0  0
 10 11  1  0  0  0  0
 10 12  1  0  0  0  0
 10 13  1  0  0  0  0
 13 14  1  0  0  0  0
 13 15  1  0  0  0  0
 15 16  1  0  0  0  0
 15 17  1  0  0  0  0
  1 18  1  0  0  0  0
 15 18  1  0  0  0  0
 18 19  1  0  0  0  0
 18 20  1  0  0  0  0
 13 21  1  0  0  0  0
 21 22  1  0  0  0  0
M  END
> <VConfSearch Rank>
822

> <Conf_Id>
104

> <Delta U+W>
-1.172

> <U+W>
5.252

> <U>
7.482

> <W>
-2.230

> <W(PB)>
-4.220

> <W(SA)>
1.990

> <Valence>
12.309

> <Coulomb>
-7.084

> <VdW>
2.258

> <VdW6>
-9.770

> <VdW12>
12.028

> <Bond>
0.284

> <Angle>
3.491

> <Pdih>
8.535

> <Idih>
0.000

> <Tether>
0.000

$$$$
VeraChem MOL file


 22 22  0  0  0  0  0  0  0  0999 V2000     
   20.6586   20.4936   21.4315 C   0  0  0  0  0  0  0  0  0  0  0  0
   21.5976   19.9259   21.3829 H   0  0  0  0  0  0  0  0  0  0  0  0
   20.7412   21.2802   20.6690 H   0  0  0  0  0  0  0  0  0  0  0  0
   20.5003   21.1826   22.8062 C   0  0  0  0  0  0  0  0  0  0  0  0
   21.1148   22.0934   22.8144 H   0  0  0  0  0  0  0  0  0  0  0  0
   19.4671   21.5363   22.9188 H   0  0  0  0  0  0  0  0  0  0  0  0
   20.9045   20.3296   24.0353 C   0  0  0  0  0  0  0  0  0  0  0  0
   20.3557   20.7008   24.9118 H   0  0  0  0  0  0  0  0  0  0  0  0
   21.9645   20.5171   24.2548 H   0  0  0  0  0  0  0  0  0  0  0  0
   20.7138   18.7923   23.9283 C   0  0  0  0  0  0  0  0  0  0  0  0
   21.5417   18.3677   23.3458 H   0  0  0  0  0  0  0  0  0  0  0  0
   20.8220   18.3666   24.9343 H   0  0  0  0  0  0  0  0  0  0  0  0
   19.3788   18.2877   23.3342 C   0  0  0  0  0  0  0  0  0  0  0  0
   19.2349   17.2551   23.6836 H   0  0  0  0  0  0  0  0  0  0  0  0
   19.3894   18.2392   21.7896 C   0  0  0  0  0  0  0  0  0  0  0  0
   20.2353   17.6203   21.4631 H   0  0  0  0  0  0  0  0  0  0  0  0
   18.4885   17.7069   21.4577 H   0  0  0  0  0  0  0  0  0  0  0  0
   19.4516   19.6016   21.0554 C   0  0  0  0  0  0  0  0  0  0  0  0
   19.4944   19.4004   19.9764 H   0  0  0  0  0  0  0  0  0  0  0  0
   18.5158   20.1539   21.2155 H   0  0  0  0  0  0  0  0  0  0  0  0
   18.2968   19.0843   23.7913 O   0  0  0  0  0  0  0  0  0  0  0  0
   18.5364   19.9919   23.5171 H   0  0  0  0  0  0  0  0  0  0  0  0
  1  2  1  0  0  0  0
  1  3  1  0  0  0  0
  1  4  1  0  0  0  0
  4  5  1  0  0  0  0
  4  6  1  0  0  0  0
  4  7  1  0  0  0  0
  7  8  1  0  0  0  0
  7  9  1  0  0  0  0
  7 10  1  0  0  0  0
 10 11  1  0  0  0  0
 10 12  1  0  0  0  0
 10 13  1  0  0  0  0
 13 14  1  0  0  0  0
 13 15  1  0  0  0  0
 15 16  1  0  0  0  0
 15 17  1  0  0  0  0
  1 18  1  0  0  0  0
 15 18  1  0  0  0  0
 18 19  1  0  0  0  0
 18 20  1  0  0  0  0
 13 21  1  0  0  0  0
 21 22  1  0  0  0  0
M  END
> <VConfSearch Rank>
823

> <Conf_Id>
99

> <Delta U+W>
-3.852

> <U+W>
2.572

> <U>
3.922

> <W>
-1.350

> <W(PB)>
-3.345

> <W(SA)>
1.995

> <Valence>
12.571

> <Coulomb>
-10.581

> <VdW>
1.932

> <VdW6>
-10.483

> <VdW12>
12.415

> <Bond>
0.268

> <Angle>
3.728

> <Pdih>
8.575

> <Idih>
0.000

> <Tether>
0.000

$$$$
VeraChem MOL file


 22 22  0  0  0  0  0  0  0  0999 V2000     
   20.5987   18.2590   21.8244 C   0  0  0  0  0  0  0  0  0  0  0  0
   21.1494   17.7950   20.9946 H   0  0  0  0  0  0  0  0  0  0  0  0
   20.1928   17.4169   22.4007 H   0  0  0  0  0  0  0  0  0  0  0  0
   19.4392   19.1012   21.2161 C   0  0  0  0  0  0  0  0  0  0  0  0
   19.4879   19.0016   20.1230 H   0  0  0  0  0  0  0  0  0  0  0  0
   18.4696   18.6685   21.4968 H   0  0  0  0  0  0  0  0  0  0  0  0
   19.4495   20.6141   21.5533 C   0  0  0  0  0  0  0  0  0  0  0  0
   18.7089   21.1161   20.9160 H   0  0  0  0  0  0  0  0  0  0  0  0
   20.4104   21.0530   21.2573 H   0  0  0  0  0  0  0  0  0  0  0  0
   19.1358   20.9853   23.0293 C   0  0  0  0  0  0  0  0  0  0  0  0
   19.5482   21.9831   23.2271 H   0  0  0  0  0  0  0  0  0  0  0  0
   18.0483   21.0946   23.1358 H   0  0  0  0  0  0  0  0  0  0  0  0
   19.6194   20.0254   24.1442 C   0  0  0  0  0  0  0  0  0  0  0  0
   19.5087   20.5616   25.0976 H   0  0  0  0  0  0  0  0  0  0  0  0
   21.0945   19.5622   24.0572 C   0  0  0  0  0  0  0  0  0  0  0  0
   21.7384   20.3917   24.3767 H   0  0  0  0  0  0  0  0  0  0  0  0
   21.2393   18.7760   24.8102 H   0  0  0  0  0  0  0  0  0  0  0  0
   21.6204   19.0373   22.6924 C   0  0  0  0  0  0  0  0  0  0  0  0
   22.0411   19.8686   22.1131 H   0  0  0  0  0  0  0  0  0  0  0  0
   22.4768   18.3793   22.8929 H   0  0  0  0  0  0  0  0  0  0  0  0
   18.7671   18.8923   24.1996 O   0  0  0  0  0  0  0  0  0  0  0  0
   18.9014   18.4531   23.3359 H   0  0  0  0  0  0  0  0  0  0  0  0
  1  2  1  0  0  0  0
  1  3  1  0  0  0  0
  1  4  1  0  0  0  0
  4  5  1  0  0  0  0
  4  6  1  0  0  0  0
  4  7  1  0  0  0  0
  7  8  1  0  0  0  0
  7  9  1  0  0  0  0
  7 10  1  0  0  0  0
 10 11  1  0  0  0  0
 10 12  1  0  0  0  0
 10 13  1  0  0  0  0
 13 14  1  0  0  0  0
 13 15  1  0  0  0  0
 15 16  1  0  0  0  0
 15 17  1  0  0  0  0
  1 18  1  0  0  0  0
 15 18  1  0  0  0  0
 18 19  1  0  0  0  0
 18 20  1  0  0  0  0
 13 21  1  0  0  0  0
 21 22  1  0  0  0  0
M  END
> <VConfSearch Rank>
824

> <Conf_Id>
98

> <Delta U+W>
0.930

> <U+W>
7.353

> <U>
8.455

> <W>
-1.102

> <W(PB)>
-3.101

> <W(SA)>
2.000

> <Valence>
15.601

> <Coulomb>
-10.573

> <VdW>
3.427

> <VdW6>
-11.360

> <VdW12>
14.787

> <Bond>
0.471

> <Angle>
5.445

> <Pdih>
9.685

> <Idih>
0.000

> <Tether>
0.000

$$$$
VeraChem MOL file


 22 22  0  0  0  0  0  0  0  0999 V2000     
   21.6166   20.1590   22.6826 C   0  0  0  0  0  0  0  0  0  0  0  0
   21.8295   19.5090   21.8242 H   0  0  0  0  0  0  0  0  0  0  0  0
   22.5436   20.7242   22.8492 H   0  0  0  0  0  0  0  0  0  0  0  0
   21.3340   19.2940   23.9373 C   0  0  0  0  0  0  0  0  0  0  0  0
   22.2238   18.6761   24.1201 H   0  0  0  0  0  0  0  0  0  0  0  0
   21.2371   19.9438   24.8177 H   0  0  0  0  0  0  0  0  0  0  0  0
   20.0998   18.3531   23.8589 C   0  0  0  0  0  0  0  0  0  0  0  0
   19.2660   18.7775   24.4331 H   0  0  0  0  0  0  0  0  0  0  0  0
   20.3502   17.4161   24.3745 H   0  0  0  0  0  0  0  0  0  0  0  0
   19.6201   18.0169   22.4220 C   0  0  0  0  0  0  0  0  0  0  0  0
   20.4720   17.6533   21.8341 H   0  0  0  0  0  0  0  0  0  0  0  0
   18.9321   17.1626   22.4792 H   0  0  0  0  0  0  0  0  0  0  0  0
   18.9227   19.1748   21.6495 C   0  0  0  0  0  0  0  0  0  0  0  0
   19.3445   19.2072   20.6345 H   0  0  0  0  0  0  0  0  0  0  0  0
   19.0604   20.5855   22.2751 C   0  0  0  0  0  0  0  0  0  0  0  0
   18.4307   21.2868   21.7124 H   0  0  0  0  0  0  0  0  0  0  0  0
   18.6457   20.5811   23.2902 H   0  0  0  0  0  0  0  0  0  0  0  0
   20.4987   21.1601   22.3075 C   0  0  0  0  0  0  0  0  0  0  0  0
   20.7351   21.5822   21.3212 H   0  0  0  0  0  0  0  0  0  0  0  0
   20.5206   22.0045   23.0097 H   0  0  0  0  0  0  0  0  0  0  0  0
   17.5329   18.8827   21.5582 O   0  0  0  0  0  0  0  0  0  0  0  0
   17.1291   19.5951   21.0200 H   0  0  0  0  0  0  0  0  0  0  0  0
  1  2  1  0  0  0  0
  1  3  1  0  0  0  0
  1  4  1  0  0  0  0
  4  5  1  0  0  0  0
  4  6  1  0  0  0  0
  4  7  1  0  0  0  0
  7  8  1  0  0  0  0
  7  9  1  0  0  0  0
  7 10  1  0  0  0  0
 10 11  1  0  0  0  0
 10 12  1  0  0  0  0
 10 13  1  0  0  0  0
 13 14  1  0  0  0  0
 13 15  1  0  0  0  0
 15 16  1  0  0  0  0
 15 17  1  0  0  0  0
  1 18  1  0  0  0  0
 15 18  1  0  0  0  0
 18 19  1  0  0  0  0
 18 20  1  0  0  0  0
 13 21  1  0  0  0  0
 21 22  1  0  0  0  0
M  END
> <VConfSearch Rank>
825

> <Conf_Id>
141

> <Delta U+W>
0.000

> <U+W>
6.423

> <U>
8.781

> <W>
-2.358

> <W(PB)>
-4.373

> <W(SA)>
2.015

> <Valence>
13.328

> <Coulomb>
-8.387

> <VdW>
3.840

> <VdW6>
-9.744

> <VdW12>
13.584

> <Bond>
0.436

> <Angle>
3.478

> <Pdih>
9.415

> <Idih>
0.000

> <Tether>
0.000

$$$$
VeraChem MOL file


 22 22  0  0  0  0  0  0  0  0999 V2000     
   20.2679   19.3865   20.9475 C   0  0  0  0  0  0  0  0  0  0  0  0
   20.9176   20.2721   20.9630 H   0  0  0  0  0  0  0  0  0  0  0  0
   20.3153   18.9929   19.9229 H   0  0  0  0  0  0  0  0  0  0  0  0
   18.7970   19.7739   21.2340 C   0  0  0  0  0  0  0  0  0  0  0  0
   18.4162   20.3554   20.3833 H   0  0  0  0  0  0  0  0  0  0  0  0
   18.1819   18.8645   21.2731 H   0  0  0  0  0  0  0  0  0  0  0  0
   18.5715   20.5994   22.5217 C   0  0  0  0  0  0  0  0  0  0  0  0
   17.4906   20.7503   22.6467 H   0  0  0  0  0  0  0  0  0  0  0  0
   19.0009   21.6022   22.3921 H   0  0  0  0  0  0  0  0  0  0  0  0
   19.1342   19.9607   23.8150 C   0  0  0  0  0  0  0  0  0  0  0  0
   18.7152   20.5121   24.6670 H   0  0  0  0  0  0  0  0  0  0  0  0
   18.7845   18.9254   23.9194 H   0  0  0  0  0  0  0  0  0  0  0  0
   20.6765   20.0210   23.8879 C   0  0  0  0  0  0  0  0  0  0  0  0
   21.0091   20.9402   23.3847 H   0  0  0  0  0  0  0  0  0  0  0  0
   21.3976   18.8212   23.2323 C   0  0  0  0  0  0  0  0  0  0  0  0
   22.4399   19.1169   23.0567 H   0  0  0  0  0  0  0  0  0  0  0  0
   21.4376   17.9873   23.9458 H   0  0  0  0  0  0  0  0  0  0  0  0
   20.7997   18.2937   21.9040 C   0  0  0  0  0  0  0  0  0  0  0  0
   21.5779   17.7154   21.3875 H   0  0  0  0  0  0  0  0  0  0  0  0
   19.9965   17.5766   22.1218 H   0  0  0  0  0  0  0  0  0  0  0  0
   21.0689   20.0783   25.2539 O   0  0  0  0  0  0  0  0  0  0  0  0
   20.6626   20.8868   25.6306 H   0  0  0  0  0  0  0  0  0  0  0  0
  1  2  1  0  0  0  0
  1  3  1  0  0  0  0
  1  4  1  0  0  0  0
  4  5  1  0  0  0  0
  4  6  1  0  0  0  0
  4  7  1  0  0  0  0
  7  8  1  0  0  0  0
  7  9  1  0  0  0  0
  7 10  1  0  0  0  0
 10 11  1  0  0  0  0
 10 12  1  0  0  0  0
 10 13  1  0  0  0  0
 13 14  1  0  0  0  0
 13 15  1  0  0  0  0
 15 16  1  0  0  0  0
 15 17  1  0  0  0  0
  1 18  1  0  0  0  0
 15 18  1  0  0  0  0
 18 19  1  0  0  0  0
 18 20  1  0  0  0  0
 13 21  1  0  0  0  0
 21 22  1  0  0  0  0
M  END
> <VConfSearch Rank>
826

> <Conf_Id>
144

> <Delta U+W>
-3.291

> <U+W>
3.132

> <U>
5.411

> <W>
-2.279

> <W(PB)>
-4.300

> <W(SA)>
2.021

> <Valence>
11.909

> <Coulomb>
-8.733

> <VdW>
2.236

> <VdW6>
-8.936

> <VdW12>
11.172

> <Bond>
0.223

> <Angle>
2.457

> <Pdih>
9.228

> <Idih>
0.000

> <Tether>
0.000

$$$$
VeraChem MOL file


 22 22  0  0  0  0  0  0  0  0999 V2000     
   20.6442   21.0973   22.3041 C   0  0  0  0  0  0  0  0  0  0  0  0
   20.8418   22.1738   22.2090 H   0  0  0  0  0  0  0  0  0  0  0  0
   21.5192   20.5888   21.8769 H   0  0  0  0  0  0  0  0  0  0  0  0
   19.3677   20.7719   21.4939 C   0  0  0  0  0  0  0  0  0  0  0  0
   18.4811   21.0050   22.0992 H   0  0  0  0  0  0  0  0  0  0  0  0
   19.3157   21.4450   20.6272 H   0  0  0  0  0  0  0  0  0  0  0  0
   19.2735   19.3171   20.9737 C   0  0  0  0  0  0  0  0  0  0  0  0
   19.8364   19.2364   20.0337 H   0  0  0  0  0  0  0  0  0  0  0  0
   18.2259   19.1142   20.7121 H   0  0  0  0  0  0  0  0  0  0  0  0
   19.7767   18.2107   21.9334 C   0  0  0  0  0  0  0  0  0  0  0  0
   19.3549   17.2548   21.5944 H   0  0  0  0  0  0  0  0  0  0  0  0
   20.8646   18.1099   21.8283 H   0  0  0  0  0  0  0  0  0  0  0  0
   19.4254   18.4303   23.4220 C   0  0  0  0  0  0  0  0  0  0  0  0
   18.4457   18.9229   23.5004 H   0  0  0  0  0  0  0  0  0  0  0  0
   20.4893   19.2708   24.1641 C   0  0  0  0  0  0  0  0  0  0  0  0
   20.3202   19.1769   25.2452 H   0  0  0  0  0  0  0  0  0  0  0  0
   21.4855   18.8501   23.9753 H   0  0  0  0  0  0  0  0  0  0  0  0
   20.4997   20.7772   23.8113 C   0  0  0  0  0  0  0  0  0  0  0  0
   19.5856   21.2479   24.1982 H   0  0  0  0  0  0  0  0  0  0  0  0
   21.3313   21.2502   24.3512 H   0  0  0  0  0  0  0  0  0  0  0  0
   19.3527   17.1603   24.0559 O   0  0  0  0  0  0  0  0  0  0  0  0
   20.2391   16.7541   23.9640 H   0  0  0  0  0  0  0  0  0  0  0  0
  1  2  1  0  0  0  0
  1  3  1  0  0  0  0
  1  4  1  0  0  0  0
  4  5  1  0  0  0  0
  4  6  1  0  0  0  0
  4  7  1  0  0  0  0
  7  8  1  0  0  0  0
  7  9  1  0  0  0  0
  7 10  1  0  0  0  0
 10 11  1  0  0  0  0
 10 12  1  0  0  0  0
 10 13  1  0  0  0  0
 13 14  1  0  0  0  0
 13 15  1  0  0  0  0
 15 16  1  0  0  0  0
 15 17  1  0  0  0  0
  1 18  1  0  0  0  0
 15 18  1  0  0  0  0
 18 19  1  0  0  0  0
 18 20  1  0  0  0  0
 13 21  1  0  0  0  0
 21 22  1  0  0  0  0
M  END
> <VConfSearch Rank>
827

> <Conf_Id>
76

> <Delta U+W>
-3.175

> <U+W>
3.248

> <U>
5.336

> <W>
-2.088

> <W(PB)>
-4.098

> <W(SA)>
2.010

> <Valence>
12.390

> <Coulomb>
-9.270

> <VdW>
2.216

> <VdW6>
-8.967

> <VdW12>
11.183

> <Bond>
0.218

> <Angle>
2.426

> <Pdih>
9.745

> <Idih>
0.000

> <Tether>
0.000

$$$$
VeraChem MOL file


 22 22  0  0  0  0  0  0  0  0999 V2000     
   18.9499   18.7215   21.4362 C   0  0  0  0  0  0  0  0  0  0  0  0
   17.9950   18.2151   21.6326 H   0  0  0  0  0  0  0  0  0  0  0  0
   19.0746   18.7097   20.3448 H   0  0  0  0  0  0  0  0  0  0  0  0
   20.0823   17.8858   22.0794 C   0  0  0  0  0  0  0  0  0  0  0  0
   19.7275   17.4539   23.0250 H   0  0  0  0  0  0  0  0  0  0  0  0
   20.2861   17.0285   21.4234 H   0  0  0  0  0  0  0  0  0  0  0  0
   21.4018   18.6531   22.3275 C   0  0  0  0  0  0  0  0  0  0  0  0
   21.6038   19.3624   21.5132 H   0  0  0  0  0  0  0  0  0  0  0  0
   22.2264   17.9278   22.3112 H   0  0  0  0  0  0  0  0  0  0  0  0
   21.4304   19.3691   23.7018 C   0  0  0  0  0  0  0  0  0  0  0  0
   21.1550   18.6536   24.4871 H   0  0  0  0  0  0  0  0  0  0  0  0
   22.4648   19.6643   23.9215 H   0  0  0  0  0  0  0  0  0  0  0  0
   20.5381   20.6240   23.8368 C   0  0  0  0  0  0  0  0  0  0  0  0
   20.5321   20.8955   24.9023 H   0  0  0  0  0  0  0  0  0  0  0  0
   19.0619   20.4325   23.4070 C   0  0  0  0  0  0  0  0  0  0  0  0
   18.6098   19.6148   23.9830 H   0  0  0  0  0  0  0  0  0  0  0  0
   18.5127   21.3376   23.6969 H   0  0  0  0  0  0  0  0  0  0  0  0
   18.8425   20.1970   21.8899 C   0  0  0  0  0  0  0  0  0  0  0  0
   17.8433   20.5618   21.6163 H   0  0  0  0  0  0  0  0  0  0  0  0
   19.5445   20.8088   21.3082 H   0  0  0  0  0  0  0  0  0  0  0  0
   21.1247   21.6981   23.1087 O   0  0  0  0  0  0  0  0  0  0  0  0
   20.5051   22.4528   23.1774 H   0  0  0  0  0  0  0  0  0  0  0  0
  1  2  1  0  0  0  0
  1  3  1  0  0  0  0
  1  4  1  0  0  0  0
  4  5  1  0  0  0  0
  4  6  1  0  0  0  0
  4  7  1  0  0  0  0
  7  8  1  0  0  0  0
  7  9  1  0  0  0  0
  7 10  1  0  0  0  0
 10 11  1  0  0  0  0
 10 12  1  0  0  0  0
 10 13  1  0  0  0  0
 13 14  1  0  0  0  0
 13 15  1  0  0  0  0
 15 16  1  0  0  0  0
 15 17  1  0  0  0  0
  1 18  1  0  0  0  0
 15 18  1  0  0  0  0
 18 19  1  0  0  0  0
 18 20  1  0  0  0  0
 13 21  1  0  0  0  0
 21 22  1  0  0  0  0
M  END
> <VConfSearch Rank>
828

> <Conf_Id>
95

> <Delta U+W>
-2.289

> <U+W>
4.134

> <U>
6.373

> <W>
-2.240

> <W(PB)>
-4.254

> <W(SA)>
2.015

> <Valence>
12.093

> <Coulomb>
-8.058

> <VdW>
2.339

> <VdW6>
-9.683

> <VdW12>
12.022

> <Bond>
0.268

> <Angle>
3.005

> <Pdih>
8.820

> <Idih>
0.000

> <Tether>
0.000

$$$$
VeraChem MOL file


 22 22  0  0  0  0  0  0  0  0999 V2000     
   21.8956   20.0277   22.4444 C   0  0  0  0  0  0  0  0  0  0  0  0
   22.5645   20.5959   23.1050 H   0  0  0  0  0  0  0  0  0  0  0  0
   22.5198   19.6929   21.6048 H   0  0  0  0  0  0  0  0  0  0  0  0
   20.8106   20.9921   21.9086 C   0  0  0  0  0  0  0  0  0  0  0  0
   20.5417   21.7124   22.6931 H   0  0  0  0  0  0  0  0  0  0  0  0
   21.2565   21.5899   21.1020 H   0  0  0  0  0  0  0  0  0  0  0  0
   19.5298   20.3076   21.3772 C   0  0  0  0  0  0  0  0  0  0  0  0
   19.7719   19.3726   20.8537 H   0  0  0  0  0  0  0  0  0  0  0  0
   19.0770   20.9691   20.6263 H   0  0  0  0  0  0  0  0  0  0  0  0
   18.4774   20.0643   22.4883 C   0  0  0  0  0  0  0  0  0  0  0  0
   18.3225   20.9968   23.0464 H   0  0  0  0  0  0  0  0  0  0  0  0
   17.5116   19.8447   22.0150 H   0  0  0  0  0  0  0  0  0  0  0  0
   18.7955   18.9336   23.4933 C   0  0  0  0  0  0  0  0  0  0  0  0
   18.0536   19.0088   24.3014 H   0  0  0  0  0  0  0  0  0  0  0  0
   20.1951   19.0143   24.1529 C   0  0  0  0  0  0  0  0  0  0  0  0
   20.3121   19.9770   24.6667 H   0  0  0  0  0  0  0  0  0  0  0  0
   20.2277   18.2490   24.9390 H   0  0  0  0  0  0  0  0  0  0  0  0
   21.3906   18.7723   23.1950 C   0  0  0  0  0  0  0  0  0  0  0  0
   22.2301   18.3655   23.7747 H   0  0  0  0  0  0  0  0  0  0  0  0
   21.1343   17.9899   22.4685 H   0  0  0  0  0  0  0  0  0  0  0  0
   18.6281   17.6721   22.8534 O   0  0  0  0  0  0  0  0  0  0  0  0
   17.7402   17.6811   22.4415 H   0  0  0  0  0  0  0  0  0  0  0  0
  1  2  1  0  0  0  0
  1  3  1  0  0  0  0
  1  4  1  0  0  0  0
  4  5  1  0  0  0  0
  4  6  1  0  0  0  0
  4  7  1  0  0  0  0
  7  8  1  0  0  0  0
  7  9  1  0  0  0  0
  7 10  1  0  0  0  0
 10 11  1  0  0  0  0
 10 12  1  0  0  0  0
 10 13  1  0  0  0  0
 13 14  1  0  0  0  0
 13 15  1  0  0  0  0
 15 16  1  0  0  0  0
 15 17  1  0  0  0  0
  1 18  1  0  0  0  0
 15 18  1  0  0  0  0
 18 19  1  0  0  0  0
 18 20  1  0  0  0  0
 13 21  1  0  0  0  0
 21 22  1  0  0  0  0
M  END
> <VConfSearch Rank>
829

> <Conf_Id>
41

> <Delta U+W>
-2.114

> <U+W>
4.310

> <U>
6.598

> <W>
-2.289

> <W(PB)>
-4.294

> <W(SA)>
2.005

> <Valence>
12.082

> <Coulomb>
-7.801

> <VdW>
2.317

> <VdW6>
-9.658

> <VdW12>
11.975

> <Bond>
0.267

> <Angle>
3.051

> <Pdih>
8.764

> <Idih>
0.000

> <Tether>
0.000

$$$$
VeraChem MOL file


 22 22  0  0  0  0  0  0  0  0999 V2000     
   19.5295   20.4563   23.9894 C   0  0  0  0  0  0  0  0  0  0  0  0
   19.2613   20.8661   24.9727 H   0  0  0  0  0  0  0  0  0  0  0  0
   19.5036   21.3003   23.2865 H   0  0  0  0  0  0  0  0  0  0  0  0
   18.4688   19.3980   23.6119 C   0  0  0  0  0  0  0  0  0  0  0  0
   18.5528   18.5362   24.2877 H   0  0  0  0  0  0  0  0  0  0  0  0
   17.4713   19.8228   23.7882 H   0  0  0  0  0  0  0  0  0  0  0  0
   18.5358   18.9128   22.1473 C   0  0  0  0  0  0  0  0  0  0  0  0
   18.2419   19.7317   21.4772 H   0  0  0  0  0  0  0  0  0  0  0  0
   17.7721   18.1350   22.0133 H   0  0  0  0  0  0  0  0  0  0  0  0
   19.9068   18.3320   21.7066 C   0  0  0  0  0  0  0  0  0  0  0  0
   20.2384   17.5666   22.4196 H   0  0  0  0  0  0  0  0  0  0  0  0
   19.7541   17.8051   20.7560 H   0  0  0  0  0  0  0  0  0  0  0  0
   21.0402   19.3653   21.4788 C   0  0  0  0  0  0  0  0  0  0  0  0
   21.8127   18.8594   20.8817 H   0  0  0  0  0  0  0  0  0  0  0  0
   21.7522   19.8814   22.7563 C   0  0  0  0  0  0  0  0  0  0  0  0
   22.6561   19.2773   22.9077 H   0  0  0  0  0  0  0  0  0  0  0  0
   22.1147   20.9020   22.5761 H   0  0  0  0  0  0  0  0  0  0  0  0
   20.9540   19.8664   24.0835 C   0  0  0  0  0  0  0  0  0  0  0  0
   20.9071   18.8428   24.4791 H   0  0  0  0  0  0  0  0  0  0  0  0
   21.5244   20.4425   24.8248 H   0  0  0  0  0  0  0  0  0  0  0  0
   20.5614   20.4703   20.7169 O   0  0  0  0  0  0  0  0  0  0  0  0
   21.3247   21.0654   20.5715 H   0  0  0  0  0  0  0  0  0  0  0  0
  1  2  1  0  0  0  0
  1  3  1  0  0  0  0
  1  4  1  0  0  0  0
  4  5  1  0  0  0  0
  4  6  1  0  0  0  0
  4  7  1  0  0  0  0
  7  8  1  0  0  0  0
  7  9  1  0  0  0  0
  7 10  1  0  0  0  0
 10 11  1  0  0  0  0
 10 12  1  0  0  0  0
 10 13  1  0  0  0  0
 13 14  1  0  0  0  0
 13 15  1  0  0  0  0
 15 16  1  0  0  0  0
 15 17  1  0  0  0  0
  1 18  1  0  0  0  0
 15 18  1  0  0  0  0
 18 19  1  0  0  0  0
 18 20  1  0  0  0  0
 13 21  1  0  0  0  0
 21 22  1  0  0  0  0
M  END
> <VConfSearch Rank>
830

> <Conf_Id>
104

> <Delta U+W>
-1.172

> <U+W>
5.252

> <U>
7.482

> <W>
-2.230

> <W(PB)>
-4.220

> <W(SA)>
1.990

> <Valence>
12.309

> <Coulomb>
-7.084

> <VdW>
2.258

> <VdW6>
-9.770

> <VdW12>
12.028

> <Bond>
0.284

> <Angle>
3.491

> <Pdih>
8.535

> <Idih>
0.000

> <Tether>
0.000

$$$$
VeraChem MOL file


 22 22  0  0  0  0  0  0  0  0999 V2000     
   18.9567   18.5025   22.1186 C   0  0  0  0  0  0  0  0  0  0  0  0
   19.7051   17.9284   21.5557 H   0  0  0  0  0  0  0  0  0  0  0  0
   17.9932   18.0096   21.9300 H   0  0  0  0  0  0  0  0  0  0  0  0
   18.8584   19.9511   21.5880 C   0  0  0  0  0  0  0  0  0  0  0  0
   18.2488   19.9488   20.6740 H   0  0  0  0  0  0  0  0  0  0  0  0
   18.2943   20.5631   22.3040 H   0  0  0  0  0  0  0  0  0  0  0  0
   20.2074   20.6367   21.2537 C   0  0  0  0  0  0  0  0  0  0  0  0
   20.0734   21.7245   21.3316 H   0  0  0  0  0  0  0  0  0  0  0  0
   20.4410   20.4472   20.1971 H   0  0  0  0  0  0  0  0  0  0  0  0
   21.4464   20.2149   22.0893 C   0  0  0  0  0  0  0  0  0  0  0  0
   21.8253   19.2568   21.7108 H   0  0  0  0  0  0  0  0  0  0  0  0
   22.2486   20.9386   21.8948 H   0  0  0  0  0  0  0  0  0  0  0  0
   21.2594   20.1049   23.6200 C   0  0  0  0  0  0  0  0  0  0  0  0
   22.2546   20.1965   24.0784 H   0  0  0  0  0  0  0  0  0  0  0  0
   20.6899   18.7368   24.0583 C   0  0  0  0  0  0  0  0  0  0  0  0
   21.3449   17.9440   23.6743 H   0  0  0  0  0  0  0  0  0  0  0  0
   20.7581   18.6724   25.1521 H   0  0  0  0  0  0  0  0  0  0  0  0
   19.2309   18.4289   23.6396 C   0  0  0  0  0  0  0  0  0  0  0  0
   18.9889   17.4146   23.9849 H   0  0  0  0  0  0  0  0  0  0  0  0
   18.5413   19.0952   24.1753 H   0  0  0  0  0  0  0  0  0  0  0  0
   20.4329   21.1549   24.0981 O   0  0  0  0  0  0  0  0  0  0  0  0
   19.6042   21.0572   23.5882 H   0  0  0  0  0  0  0  0  0  0  0  0
  1  2  1  0  0  0  0
  1  3  1  0  0  0  0
  1  4  1  0  0  0  0
  4  5  1  0  0  0  0
  4  6  1  0  0  0  0
  4  7  1  0  0  0  0
  7  8  1  0  0  0  0
  7  9  1  0  0  0  0
  7 10  1  0  0  0  0
 10 11  1  0  0  0  0
 10 12  1  0  0  0  0
 10 13  1  0  0  0  0
 13 14  1  0  0  0  0
 13 15  1  0  0  0  0
 15 16  1  0  0  0  0
 15 17  1  0  0  0  0
  1 18  1  0  0  0  0
 15 18  1  0  0  0  0
 18 19  1  0  0  0  0
 18 20  1  0  0  0  0
 13 21  1  0  0  0  0
 21 22  1  0  0  0  0
M  END
> <VConfSearch Rank>
831

> <Conf_Id>
99

> <Delta U+W>
-3.852

> <U+W>
2.572

> <U>
3.922

> <W>
-1.350

> <W(PB)>
-3.345

> <W(SA)>
1.995

> <Valence>
12.571

> <Coulomb>
-10.581

> <VdW>
1.932

> <VdW6>
-10.483

> <VdW12>
12.415

> <Bond>
0.268

> <Angle>
3.728

> <Pdih>
8.575

> <Idih>
0.000

> <Tether>
0.000

$$$$
VeraChem MOL file


 22 22  0  0  0  0  0  0  0  0999 V2000     
   18.9871   18.4335   22.1738 C   0  0  0  0  0  0  0  0  0  0  0  0
   17.9640   18.0894   21.9687 H   0  0  0  0  0  0  0  0  0  0  0  0
   19.6313   17.5897   21.8923 H   0  0  0  0  0  0  0  0  0  0  0  0
   19.1010   18.7088   23.7019 C   0  0  0  0  0  0  0  0  0  0  0  0
   18.1271   18.4838   24.1582 H   0  0  0  0  0  0  0  0  0  0  0  0
   19.8006   17.9990   24.1632 H   0  0  0  0  0  0  0  0  0  0  0  0
   19.4882   20.1548   24.1042 C   0  0  0  0  0  0  0  0  0  0  0  0
   19.3439   20.2633   25.1878 H   0  0  0  0  0  0  0  0  0  0  0  0
   18.7801   20.8651   23.6595 H   0  0  0  0  0  0  0  0  0  0  0  0
   20.9434   20.5877   23.7729 C   0  0  0  0  0  0  0  0  0  0  0  0
   20.9740   21.6841   23.7313 H   0  0  0  0  0  0  0  0  0  0  0  0
   21.5882   20.3114   24.6177 H   0  0  0  0  0  0  0  0  0  0  0  0
   21.5976   20.0300   22.4848 C   0  0  0  0  0  0  0  0  0  0  0  0
   22.5114   20.6163   22.3111 H   0  0  0  0  0  0  0  0  0  0  0  0
   20.7513   20.1222   21.1912 C   0  0  0  0  0  0  0  0  0  0  0  0
   20.7594   21.1636   20.8444 H   0  0  0  0  0  0  0  0  0  0  0  0
   21.2752   19.5529   20.4119 H   0  0  0  0  0  0  0  0  0  0  0  0
   19.2752   19.6393   21.2432 C   0  0  0  0  0  0  0  0  0  0  0  0
   18.6204   20.4779   21.5104 H   0  0  0  0  0  0  0  0  0  0  0  0
   18.9742   19.3685   20.2221 H   0  0  0  0  0  0  0  0  0  0  0  0
   21.9970   18.6852   22.6976 O   0  0  0  0  0  0  0  0  0  0  0  0
   21.1554   18.2093   22.8459 H   0  0  0  0  0  0  0  0  0  0  0  0
  1  2  1  0  0  0  0
  1  3  1  0  0  0  0
  1  4  1  0  0  0  0
  4  5  1  0  0  0  0
  4  6  1  0  0  0  0
  4  7  1  0  0  0  0
  7  8  1  0  0  0  0
  7  9  1  0  0  0  0
  7 10  1  0  0  0  0
 10 11  1  0  0  0  0
 10 12  1  0  0  0  0
 10 13  1  0  0  0  0
 13 14  1  0  0  0  0
 13 15  1  0  0  0  0
 15 16  1  0  0  0  0
 15 17  1  0  0  0  0
  1 18  1  0  0  0  0
 15 18  1  0  0  0  0
 18 19  1  0  0  0  0
 18 20  1  0  0  0  0
 13 21  1  0  0  0  0
 21 22  1  0  0  0  0
M  END
> <VConfSearch Rank>
832

> <Conf_Id>
98

> <Delta U+W>
0.930

> <U+W>
7.353

> <U>
8.455

> <W>
-1.102

> <W(PB)>
-3.101

> <W(SA)>
2.000

> <Valence>
15.601

> <Coulomb>
-10.573

> <VdW>
3.427

> <VdW6>
-11.360

> <VdW12>
14.787

> <Bond>
0.471

> <Angle>
5.445

> <Pdih>
9.685

> <Idih>
0.000

> <Tether>
0.000

$$$$
VeraChem MOL file


 22 22  0  0  0  0  0  0  0  0999 V2000     
   18.3473   19.6411   22.2561 C   0  0  0  0  0  0  0  0  0  0  0  0
   18.4457   18.6473   21.8007 H   0  0  0  0  0  0  0  0  0  0  0  0
   17.2837   19.8968   22.1556 H   0  0  0  0  0  0  0  0  0  0  0  0
   19.1804   20.6709   21.4513 C   0  0  0  0  0  0  0  0  0  0  0  0
   18.8016   20.6691   20.4201 H   0  0  0  0  0  0  0  0  0  0  0  0
   18.9880   21.6813   21.8370 H   0  0  0  0  0  0  0  0  0  0  0  0
   20.7141   20.4261   21.4034 C   0  0  0  0  0  0  0  0  0  0  0  0
   21.2269   21.1164   22.0856 H   0  0  0  0  0  0  0  0  0  0  0  0
   21.0734   20.6994   20.4020 H   0  0  0  0  0  0  0  0  0  0  0  0
   21.1572   18.9711   21.7105 C   0  0  0  0  0  0  0  0  0  0  0  0
   20.5946   18.2807   21.0697 H   0  0  0  0  0  0  0  0  0  0  0  0
   22.2038   18.8560   21.3978 H   0  0  0  0  0  0  0  0  0  0  0  0
   21.0215   18.5175   23.1936 C   0  0  0  0  0  0  0  0  0  0  0  0
   20.5554   17.5216   23.2021 H   0  0  0  0  0  0  0  0  0  0  0  0
   20.1905   19.4475   24.1127 C   0  0  0  0  0  0  0  0  0  0  0  0
   20.2708   19.0892   25.1472 H   0  0  0  0  0  0  0  0  0  0  0  0
   20.6353   20.4498   24.1228 H   0  0  0  0  0  0  0  0  0  0  0  0
   18.6851   19.5543   23.7631 C   0  0  0  0  0  0  0  0  0  0  0  0
   18.1605   18.6844   24.1812 H   0  0  0  0  0  0  0  0  0  0  0  0
   18.2697   20.4321   24.2766 H   0  0  0  0  0  0  0  0  0  0  0  0
   22.3252   18.4172   23.7553 O   0  0  0  0  0  0  0  0  0  0  0  0
   22.2146   18.0760   24.6672 H   0  0  0  0  0  0  0  0  0  0  0  0
  1  2  1  0  0  0  0
  1  3  1  0  0  0  0
  1  4  1  0  0  0  0
  4  5  1  0  0  0  0
  4  6  1  0  0  0  0
  4  7  1  0  0  0  0
  7  8  1  0  0  0  0
  7  9  1  0  0  0  0
  7 10  1  0  0  0  0
 10 11  1  0  0  0  0
 10 12  1  0  0  0  0
 10 13  1  0  0  0  0
 13 14  1  0  0  0  0
 13 15  1  0  0  0  0
 15 16  1  0  0  0  0
 15 17  1  0  0  0  0
  1 18  1  0  0  0  0
 15 18  1  0  0  0  0
 18 19  1  0  0  0  0
 18 20  1  0  0  0  0
 13 21  1  0  0  0  0
 21 22  1  0  0  0  0
M  END
> <VConfSearch Rank>
833

> <Conf_Id>
141

> <Delta U+W>
0.000

> <U+W>
6.423

> <U>
8.781

> <W>
-2.358

> <W(PB)>
-4.373

> <W(SA)>
2.015

> <Valence>
13.328

> <Coulomb>
-8.387

> <VdW>
3.840

> <VdW6>
-9.744

> <VdW12>
13.584

> <Bond>
0.436

> <Angle>
3.478

> <Pdih>
9.415

> <Idih>
0.000

> <Tether>
0.000

$$$$
VeraChem MOL file


 22 22  0  0  0  0  0  0  0  0999 V2000     
   21.5179   20.3596   22.2760 C   0  0  0  0  0  0  0  0  0  0  0  0
   21.3010   21.1322   23.0262 H   0  0  0  0  0  0  0  0  0  0  0  0
   22.5224   20.5832   21.8915 H   0  0  0  0  0  0  0  0  0  0  0  0
   20.5297   20.4487   21.0881 C   0  0  0  0  0  0  0  0  0  0  0  0
   20.7330   21.3744   20.5325 H   0  0  0  0  0  0  0  0  0  0  0  0
   20.7305   19.6286   20.3851 H   0  0  0  0  0  0  0  0  0  0  0  0
   19.0325   20.4366   21.4735 C   0  0  0  0  0  0  0  0  0  0  0  0
   18.4407   20.4356   20.5480 H   0  0  0  0  0  0  0  0  0  0  0  0
   18.7809   21.3735   21.9890 H   0  0  0  0  0  0  0  0  0  0  0  0
   18.5909   19.2346   22.3438 C   0  0  0  0  0  0  0  0  0  0  0  0
   17.4931   19.2159   22.3514 H   0  0  0  0  0  0  0  0  0  0  0  0
   18.9093   18.2883   21.8875 H   0  0  0  0  0  0  0  0  0  0  0  0
   19.1011   19.3324   23.7990 C   0  0  0  0  0  0  0  0  0  0  0  0
   19.1407   20.3948   24.0792 H   0  0  0  0  0  0  0  0  0  0  0  0
   20.4999   18.7171   24.0316 C   0  0  0  0  0  0  0  0  0  0  0  0
   20.8852   19.1186   24.9777 H   0  0  0  0  0  0  0  0  0  0  0  0
   20.3998   17.6340   24.1831 H   0  0  0  0  0  0  0  0  0  0  0  0
   21.5558   18.9555   22.9233 C   0  0  0  0  0  0  0  0  0  0  0  0
   22.5500   18.7910   23.3607 H   0  0  0  0  0  0  0  0  0  0  0  0
   21.4481   18.1904   22.1425 H   0  0  0  0  0  0  0  0  0  0  0  0
   18.1792   18.6669   24.6537 O   0  0  0  0  0  0  0  0  0  0  0  0
   17.3172   19.1209   24.5472 H   0  0  0  0  0  0  0  0  0  0  0  0
  1  2  1  0  0  0  0
  1  3  1  0  0  0  0
  1  4  1  0  0  0  0
  4  5  1  0  0  0  0
  4  6  1  0  0  0  0
  4  7  1  0  0  0  0
  7  8  1  0  0  0  0
  7  9  1  0  0  0  0
  7 10  1  0  0  0  0
 10 11  1  0  0  0  0
 10 12  1  0  0  0  0
 10 13  1  0  0  0  0
 13 14  1  0  0  0  0
 13 15  1  0  0  0  0
 15 16  1  0  0  0  0
 15 17  1  0  0  0  0
  1 18  1  0  0  0  0
 15 18  1  0  0  0  0
 18 19  1  0  0  0  0
 18 20  1  0  0  0  0
 13 21  1  0  0  0  0
 21 22  1  0  0  0  0
M  END
> <VConfSearch Rank>
834

> <Conf_Id>
144

> <Delta U+W>
-3.291

> <U+W>
3.132

> <U>
5.411

> <W>
-2.279

> <W(PB)>
-4.300

> <W(SA)>
2.021

> <Valence>
11.909

> <Coulomb>
-8.733

> <VdW>
2.236

> <VdW6>
-8.936

> <VdW12>
11.172

> <Bond>
0.223

> <Angle>
2.457

> <Pdih>
9.228

> <Idih>
0.000

> <Tether>
0.000

$$$$
VeraChem MOL file


 22 22  0  0  0  0  0  0  0  0999 V2000     
   18.6327   20.1215   23.6388 C   0  0  0  0  0  0  0  0  0  0  0  0
   18.0205   20.5138   24.4624 H   0  0  0  0  0  0  0  0  0  0  0  0
   17.9446   19.9636   22.7973 H   0  0  0  0  0  0  0  0  0  0  0  0
   19.2547   18.7829   24.1008 C   0  0  0  0  0  0  0  0  0  0  0  0
   20.1555   18.9846   24.6963 H   0  0  0  0  0  0  0  0  0  0  0  0
   18.5560   18.2843   24.7865 H   0  0  0  0  0  0  0  0  0  0  0  0
   19.5958   17.7904   22.9630 C   0  0  0  0  0  0  0  0  0  0  0  0
   18.6911   17.2266   22.6974 H   0  0  0  0  0  0  0  0  0  0  0  0
   20.3044   17.0488   23.3567 H   0  0  0  0  0  0  0  0  0  0  0  0
   20.1784   18.4056   21.6668 C   0  0  0  0  0  0  0  0  0  0  0  0
   20.6704   17.6005   21.1045 H   0  0  0  0  0  0  0  0  0  0  0  0
   19.3541   18.7524   21.0302 H   0  0  0  0  0  0  0  0  0  0  0  0
   21.1761   19.5648   21.8870 C   0  0  0  0  0  0  0  0  0  0  0  0
   21.7551   19.3831   22.8037 H   0  0  0  0  0  0  0  0  0  0  0  0
   20.4760   20.9396   21.9798 C   0  0  0  0  0  0  0  0  0  0  0  0
   21.2342   21.7278   21.8798 H   0  0  0  0  0  0  0  0  0  0  0  0
   19.7962   21.0629   21.1268 H   0  0  0  0  0  0  0  0  0  0  0  0
   19.6950   21.1919   23.2913 C   0  0  0  0  0  0  0  0  0  0  0  0
   20.4042   21.2860   24.1250 H   0  0  0  0  0  0  0  0  0  0  0  0
   19.1961   22.1673   23.2114 H   0  0  0  0  0  0  0  0  0  0  0  0
   22.0678   19.6031   20.7808 O   0  0  0  0  0  0  0  0  0  0  0  0
   21.5171   19.7642   19.9871 H   0  0  0  0  0  0  0  0  0  0  0  0
  1  2  1  0  0  0  0
  1  3  1  0  0  0  0
  1  4  1  0  0  0  0
  4  5  1  0  0  0  0
  4  6  1  0  0  0  0
  4  7  1  0  0  0  0
  7  8  1  0  0  0  0
  7  9  1  0  0  0  0
  7 10  1  0  0  0  0
 10 11  1  0  0  0  0
 10 12  1  0  0  0  0
 10 13  1  0  0  0  0
 13 14  1  0  0  0  0
 13 15  1  0  0  0  0
 15 16  1  0  0  0  0
 15 17  1  0  0  0  0
  1 18  1  0  0  0  0
 15 18  1  0  0  0  0
 18 19  1  0  0  0  0
 18 20  1  0  0  0  0
 13 21  1  0  0  0  0
 21 22  1  0  0  0  0
M  END
> <VConfSearch Rank>
835

> <Conf_Id>
76

> <Delta U+W>
-3.175

> <U+W>
3.248

> <U>
5.336

> <W>
-2.088

> <W(PB)>
-4.098

> <W(SA)>
2.010

> <Valence>
12.390

> <Coulomb>
-9.270

> <VdW>
2.216

> <VdW6>
-8.967

> <VdW12>
11.183

> <Bond>
0.218

> <Angle>
2.426

> <Pdih>
9.745

> <Idih>
0.000

> <Tether>
0.000

$$$$
VeraChem MOL file


 22 22  0  0  0  0  0  0  0  0999 V2000     
   18.9829   20.5160   21.4963 C   0  0  0  0  0  0  0  0  0  0  0  0
   17.9615   20.2648   21.1792 H   0  0  0  0  0  0  0  0  0  0  0  0
   19.2073   21.4879   21.0359 H   0  0  0  0  0  0  0  0  0  0  0  0
   19.9453   19.4521   20.9160 C   0  0  0  0  0  0  0  0  0  0  0  0
   19.4555   18.4691   20.9285 H   0  0  0  0  0  0  0  0  0  0  0  0
   20.1088   19.6851   19.8550 H   0  0  0  0  0  0  0  0  0  0  0  0
   21.3158   19.3532   21.6256 C   0  0  0  0  0  0  0  0  0  0  0  0
   21.6742   20.3461   21.9296 H   0  0  0  0  0  0  0  0  0  0  0  0
   22.0484   18.9736   20.9007 H   0  0  0  0  0  0  0  0  0  0  0  0
   21.2980   18.3804   22.8320 C   0  0  0  0  0  0  0  0  0  0  0  0
   20.8690   17.4211   22.5156 H   0  0  0  0  0  0  0  0  0  0  0  0
   22.3345   18.1594   23.1190 H   0  0  0  0  0  0  0  0  0  0  0  0
   20.5487   18.8690   24.0925 C   0  0  0  0  0  0  0  0  0  0  0  0
   20.4743   18.0071   24.7711 H   0  0  0  0  0  0  0  0  0  0  0  0
   19.1072   19.3805   23.8456 C   0  0  0  0  0  0  0  0  0  0  0  0
   18.5112   18.5949   23.3635 H   0  0  0  0  0  0  0  0  0  0  0  0
   18.6419   19.5453   24.8260 H   0  0  0  0  0  0  0  0  0  0  0  0
   19.0054   20.6974   23.0328 C   0  0  0  0  0  0  0  0  0  0  0  0
   18.0853   21.2222   23.3237 H   0  0  0  0  0  0  0  0  0  0  0  0
   19.8251   21.3741   23.3075 H   0  0  0  0  0  0  0  0  0  0  0  0
   21.3218   19.8761   24.7377 O   0  0  0  0  0  0  0  0  0  0  0  0
   20.7902   20.1923   25.4965 H   0  0  0  0  0  0  0  0  0  0  0  0
  1  2  1  0  0  0  0
  1  3  1  0  0  0  0
  1  4  1  0  0  0  0
  4  5  1  0  0  0  0
  4  6  1  0  0  0  0
  4  7  1  0  0  0  0
  7  8  1  0  0  0  0
  7  9  1  0  0  0  0
  7 10  1  0  0  0  0
 10 11  1  0  0  0  0
 10 12  1  0  0  0  0
 10 13  1  0  0  0  0
 13 14  1  0  0  0  0
 13 15  1  0  0  0  0
 15 16  1  0  0  0  0
 15 17  1  0  0  0  0
  1 18  1  0  0  0  0
 15 18  1  0  0  0  0
 18 19  1  0  0  0  0
 18 20  1  0  0  0  0
 13 21  1  0  0  0  0
 21 22  1  0  0  0  0
M  END
> <VConfSearch Rank>
836

> <Conf_Id>
95

> <Delta U+W>
-2.289

> <U+W>
4.134

> <U>
6.373

> <W>
-2.240

> <W(PB)>
-4.254

> <W(SA)>
2.015

> <Valence>
12.093

> <Coulomb>
-8.058

> <VdW>
2.339

> <VdW6>
-9.683

> <VdW12>
12.022

> <Bond>
0.268

> <Angle>
3.005

> <Pdih>
8.820

> <Idih>
0.000

> <Tether>
0.000

$$$$
VeraChem MOL file


 22 22  0  0  0  0  0  0  0  0999 V2000     
   21.3019   19.0971   24.0450 C   0  0  0  0  0  0  0  0  0  0  0  0
   21.1298   18.4466   24.9133 H   0  0  0  0  0  0  0  0  0  0  0  0
   22.3689   19.3568   24.0741 H   0  0  0  0  0  0  0  0  0  0  0  0
   20.4672   20.3864   24.2334 C   0  0  0  0  0  0  0  0  0  0  0  0
   19.5140   20.1375   24.7190 H   0  0  0  0  0  0  0  0  0  0  0  0
   20.9984   21.0336   24.9445 H   0  0  0  0  0  0  0  0  0  0  0  0
   20.1920   21.1841   22.9374 C   0  0  0  0  0  0  0  0  0  0  0  0
   21.0630   21.1601   22.2684 H   0  0  0  0  0  0  0  0  0  0  0  0
   20.0465   22.2379   23.2110 H   0  0  0  0  0  0  0  0  0  0  0  0
   18.9145   20.7064   22.2018 C   0  0  0  0  0  0  0  0  0  0  0  0
   18.0840   20.6601   22.9180 H   0  0  0  0  0  0  0  0  0  0  0  0
   18.6247   21.4709   21.4693 H   0  0  0  0  0  0  0  0  0  0  0  0
   19.0153   19.3469   21.4728 C   0  0  0  0  0  0  0  0  0  0  0  0
   17.9958   19.0773   21.1612 H   0  0  0  0  0  0  0  0  0  0  0  0
   19.5512   18.1764   22.3349 C   0  0  0  0  0  0  0  0  0  0  0  0
   18.9207   18.0466   23.2237 H   0  0  0  0  0  0  0  0  0  0  0  0
   19.4313   17.2583   21.7455 H   0  0  0  0  0  0  0  0  0  0  0  0
   21.0411   18.2913   22.7500 C   0  0  0  0  0  0  0  0  0  0  0  0
   21.4457   17.2806   22.8944 H   0  0  0  0  0  0  0  0  0  0  0  0
   21.6258   18.7225   21.9267 H   0  0  0  0  0  0  0  0  0  0  0  0
   19.8120   19.4970   20.3017 O   0  0  0  0  0  0  0  0  0  0  0  0
   19.4427   20.2555   19.8053 H   0  0  0  0  0  0  0  0  0  0  0  0
  1  2  1  0  0  0  0
  1  3  1  0  0  0  0
  1  4  1  0  0  0  0
  4  5  1  0  0  0  0
  4  6  1  0  0  0  0
  4  7  1  0  0  0  0
  7  8  1  0  0  0  0
  7  9  1  0  0  0  0
  7 10  1  0  0  0  0
 10 11  1  0  0  0  0
 10 12  1  0  0  0  0
 10 13  1  0  0  0  0
 13 14  1  0  0  0  0
 13 15  1  0  0  0  0
 15 16  1  0  0  0  0
 15 17  1  0  0  0  0
  1 18  1  0  0  0  0
 15 18  1  0  0  0  0
 18 19  1  0  0  0  0
 18 20  1  0  0  0  0
 13 21  1  0  0  0  0
 21 22  1  0  0  0  0
M  END
> <VConfSearch Rank>
837

> <Conf_Id>
41

> <Delta U+W>
-2.114

> <U+W>
4.310

> <U>
6.598

> <W>
-2.289

> <W(PB)>
-4.294

> <W(SA)>
2.005

> <Valence>
12.082

> <Coulomb>
-7.801

> <VdW>
2.317

> <VdW6>
-9.658

> <VdW12>
11.975

> <Bond>
0.267

> <Angle>
3.051

> <Pdih>
8.764

> <Idih>
0.000

> <Tether>
0.000

$$$$
VeraChem MOL file


 22 22  0  0  0  0  0  0  0  0999 V2000     
   20.5333   21.1419   22.6566 C   0  0  0  0  0  0  0  0  0  0  0  0
   20.6361   22.2270   22.7932 H   0  0  0  0  0  0  0  0  0  0  0  0
   21.4799   20.7955   22.2195 H   0  0  0  0  0  0  0  0  0  0  0  0
   19.3593   20.8961   21.6827 C   0  0  0  0  0  0  0  0  0  0  0  0
   18.4160   21.1911   22.1621 H   0  0  0  0  0  0  0  0  0  0  0  0
   19.4773   21.5606   20.8161 H   0  0  0  0  0  0  0  0  0  0  0  0
   19.2432   19.4449   21.1669 C   0  0  0  0  0  0  0  0  0  0  0  0
   20.0933   19.2221   20.5085 H   0  0  0  0  0  0  0  0  0  0  0  0
   18.3523   19.3833   20.5276 H   0  0  0  0  0  0  0  0  0  0  0  0
   19.1279   18.3594   22.2712 C   0  0  0  0  0  0  0  0  0  0  0  0
   18.3279   18.6216   22.9751 H   0  0  0  0  0  0  0  0  0  0  0  0
   18.8045   17.4281   21.7888 H   0  0  0  0  0  0  0  0  0  0  0  0
   20.4306   18.0418   23.0497 C   0  0  0  0  0  0  0  0  0  0  0  0
   20.2745   17.0714   23.5429 H   0  0  0  0  0  0  0  0  0  0  0  0
   20.8077   19.0411   24.1741 C   0  0  0  0  0  0  0  0  0  0  0  0
   20.4246   18.6437   25.1230 H   0  0  0  0  0  0  0  0  0  0  0  0
   21.8996   19.0560   24.2881 H   0  0  0  0  0  0  0  0  0  0  0  0
   20.3035   20.4997   24.0425 C   0  0  0  0  0  0  0  0  0  0  0  0
   19.2380   20.5511   24.3040 H   0  0  0  0  0  0  0  0  0  0  0  0
   20.8218   21.1036   24.7997 H   0  0  0  0  0  0  0  0  0  0  0  0
   21.5261   17.8966   22.1499 O   0  0  0  0  0  0  0  0  0  0  0  0
   22.3065   17.6590   22.6906 H   0  0  0  0  0  0  0  0  0  0  0  0
  1  2  1  0  0  0  0
  1  3  1  0  0  0  0
  1  4  1  0  0  0  0
  4  5  1  0  0  0  0
  4  6  1  0  0  0  0
  4  7  1  0  0  0  0
  7  8  1  0  0  0  0
  7  9  1  0  0  0  0
  7 10  1  0  0  0  0
 10 11  1  0  0  0  0
 10 12  1  0  0  0  0
 10 13  1  0  0  0  0
 13 14  1  0  0  0  0
 13 15  1  0  0  0  0
 15 16  1  0  0  0  0
 15 17  1  0  0  0  0
  1 18  1  0  0  0  0
 15 18  1  0  0  0  0
 18 19  1  0  0  0  0
 18 20  1  0  0  0  0
 13 21  1  0  0  0  0
 21 22  1  0  0  0  0
M  END
> <VConfSearch Rank>
838

> <Conf_Id>
104

> <Delta U+W>
-1.172

> <U+W>
5.252

> <U>
7.482

> <W>
-2.230

> <W(PB)>
-4.220

> <W(SA)>
1.990

> <Valence>
12.309

> <Coulomb>
-7.084

> <VdW>
2.258

> <VdW6>
-9.770

> <VdW12>
12.028

> <Bond>
0.284

> <Angle>
3.491

> <Pdih>
8.535

> <Idih>
0.000

> <Tether>
0.000

$$$$
VeraChem MOL file


 22 22  0  0  0  0  0  0  0  0999 V2000     
   18.9221   18.4049   22.6104 C   0  0  0  0  0  0  0  0  0  0  0  0
   19.4597   17.8359   21.8398 H   0  0  0  0  0  0  0  0  0  0  0  0
   17.9975   17.8456   22.8090 H   0  0  0  0  0  0  0  0  0  0  0  0
   18.5250   19.8042   22.0872 C   0  0  0  0  0  0  0  0  0  0  0  0
   17.6288   19.7023   21.4598 H   0  0  0  0  0  0  0  0  0  0  0  0
   18.2108   20.4322   22.9311 H   0  0  0  0  0  0  0  0  0  0  0  0
   19.6038   20.5402   21.2529 C   0  0  0  0  0  0  0  0  0  0  0  0
   19.4215   21.6214   21.3249 H   0  0  0  0  0  0  0  0  0  0  0  0
   19.4545   20.2898   20.1937 H   0  0  0  0  0  0  0  0  0  0  0  0
   21.0900   20.2501   21.5970 C   0  0  0  0  0  0  0  0  0  0  0  0
   21.3811   19.2907   21.1501 H   0  0  0  0  0  0  0  0  0  0  0  0
   21.7081   21.0027   21.0905 H   0  0  0  0  0  0  0  0  0  0  0  0
   21.4772   20.2384   23.0936 C   0  0  0  0  0  0  0  0  0  0  0  0
   22.5602   20.4189   23.1525 H   0  0  0  0  0  0  0  0  0  0  0  0
   21.2141   18.8745   23.7710 C   0  0  0  0  0  0  0  0  0  0  0  0
   21.7468   18.0952   23.2108 H   0  0  0  0  0  0  0  0  0  0  0  0
   21.6772   18.8919   24.7663 H   0  0  0  0  0  0  0  0  0  0  0  0
   19.7315   18.4551   23.9281 C   0  0  0  0  0  0  0  0  0  0  0  0
   19.7112   17.4556   24.3835 H   0  0  0  0  0  0  0  0  0  0  0  0
   19.2313   19.1173   24.6476 H   0  0  0  0  0  0  0  0  0  0  0  0
   20.7988   21.2708   23.7923 O   0  0  0  0  0  0  0  0  0  0  0  0
   19.8524   21.0900   23.6249 H   0  0  0  0  0  0  0  0  0  0  0  0
  1  2  1  0  0  0  0
  1  3  1  0  0  0  0
  1  4  1  0  0  0  0
  4  5  1  0  0  0  0
  4  6  1  0  0  0  0
  4  7  1  0  0  0  0
  7  8  1  0  0  0  0
  7  9  1  0  0  0  0
  7 10  1  0  0  0  0
 10 11  1  0  0  0  0
 10 12  1  0  0  0  0
 10 13  1  0  0  0  0
 13 14  1  0  0  0  0
 13 15  1  0  0  0  0
 15 16  1  0  0  0  0
 15 17  1  0  0  0  0
  1 18  1  0  0  0  0
 15 18  1  0  0  0  0
 18 19  1  0  0  0  0
 18 20  1  0  0  0  0
 13 21  1  0  0  0  0
 21 22  1  0  0  0  0
M  END
> <VConfSearch Rank>
839

> <Conf_Id>
99

> <Delta U+W>
-3.852

> <U+W>
2.572

> <U>
3.922

> <W>
-1.350

> <W(PB)>
-3.345

> <W(SA)>
1.995

> <Valence>
12.571

> <Coulomb>
-10.581

> <VdW>
1.932

> <VdW6>
-10.483

> <VdW12>
12.415

> <Bond>
0.268

> <Angle>
3.728

> <Pdih>
8.575

> <Idih>
0.000

> <Tether>
0.000

$$$$
VeraChem MOL file


 22 22  0  0  0  0  0  0  0  0999 V2000     
   21.1844   20.1178   21.5489 C   0  0  0  0  0  0  0  0  0  0  0  0
   22.1930   20.1256   21.1132 H   0  0  0  0  0  0  0  0  0  0  0  0
   20.5947   20.7886   20.9098 H   0  0  0  0  0  0  0  0  0  0  0  0
   21.2824   20.6986   22.9900 C   0  0  0  0  0  0  0  0  0  0  0  0
   22.3334   20.9580   23.1780 H   0  0  0  0  0  0  0  0  0  0  0  0
   20.7402   21.6517   23.0515 H   0  0  0  0  0  0  0  0  0  0  0  0
   20.8156   19.7614   24.1330 C   0  0  0  0  0  0  0  0  0  0  0  0
   21.1151   20.2077   25.0911 H   0  0  0  0  0  0  0  0  0  0  0  0
   21.3686   18.8151   24.0851 H   0  0  0  0  0  0  0  0  0  0  0  0
   19.2898   19.4746   24.1987 C   0  0  0  0  0  0  0  0  0  0  0  0
   19.1402   18.5394   24.7536 H   0  0  0  0  0  0  0  0  0  0  0  0
   18.8164   20.2539   24.8107 H   0  0  0  0  0  0  0  0  0  0  0  0
   18.5038   19.3855   22.8674 C   0  0  0  0  0  0  0  0  0  0  0  0
   17.5186   18.9598   23.1060 H   0  0  0  0  0  0  0  0  0  0  0  0
   19.1240   18.4935   21.7638 C   0  0  0  0  0  0  0  0  0  0  0  0
   18.9546   17.4425   22.0308 H   0  0  0  0  0  0  0  0  0  0  0  0
   18.5466   18.6558   20.8439 H   0  0  0  0  0  0  0  0  0  0  0  0
   20.6320   18.6740   21.4348 C   0  0  0  0  0  0  0  0  0  0  0  0
   21.2305   17.9982   22.0583 H   0  0  0  0  0  0  0  0  0  0  0  0
   20.7965   18.3202   20.4079 H   0  0  0  0  0  0  0  0  0  0  0  0
   18.2832   20.6908   22.3565 O   0  0  0  0  0  0  0  0  0  0  0  0
   19.1823   21.0232   22.1612 H   0  0  0  0  0  0  0  0  0  0  0  0
  1  2  1  0  0  0  0
  1  3  1  0  0  0  0
  1  4  1  0  0  0  0
  4  5  1  0  0  0  0
  4  6  1  0  0  0  0
  4  7  1  0  0  0  0
  7  8  1  0  0  0  0
  7  9  1  0  0  0  0
  7 10  1  0  0  0  0
 10 11  1  0  0  0  0
 10 12  1  0  0  0  0
 10 13  1  0  0  0  0
 13 14  1  0  0  0  0
 13 15  1  0  0  0  0
 15 16  1  0  0  0  0
 15 17  1  0  0  0  0
  1 18  1  0  0  0  0
 15 18  1  0  0  0  0
 18 19  1  0  0  0  0
 18 20  1  0  0  0  0
 13 21  1  0  0  0  0
 21 22  1  0  0  0  0
M  END
> <VConfSearch Rank>
840

> <Conf_Id>
98

> <Delta U+W>
0.930

> <U+W>
7.353

> <U>
8.455

> <W>
-1.102

> <W(PB)>
-3.101

> <W(SA)>
2.000

> <Valence>
15.601

> <Coulomb>
-10.573

> <VdW>
3.427

> <VdW6>
-11.360

> <VdW12>
14.787

> <Bond>
0.471

> <Angle>
5.445

> <Pdih>
9.685

> <Idih>
0.000

> <Tether>
0.000

$$$$
VeraChem MOL file


 22 22  0  0  0  0  0  0  0  0999 V2000     
   18.8203   18.6941   21.7495 C   0  0  0  0  0  0  0  0  0  0  0  0
   18.2461   18.6126   22.6814 H   0  0  0  0  0  0  0  0  0  0  0  0
   18.1806   18.2411   20.9799 H   0  0  0  0  0  0  0  0  0  0  0  0
   20.1223   17.8609   21.8617 C   0  0  0  0  0  0  0  0  0  0  0  0
   19.8326   16.8195   22.0580 H   0  0  0  0  0  0  0  0  0  0  0  0
   20.6360   17.8488   20.8908 H   0  0  0  0  0  0  0  0  0  0  0  0
   21.1253   18.2996   22.9645 C   0  0  0  0  0  0  0  0  0  0  0  0
   21.9652   18.8445   22.5142 H   0  0  0  0  0  0  0  0  0  0  0  0
   21.5746   17.3958   23.3981 H   0  0  0  0  0  0  0  0  0  0  0  0
   20.5127   19.1485   24.1099 C   0  0  0  0  0  0  0  0  0  0  0  0
   19.6352   18.6284   24.5136 H   0  0  0  0  0  0  0  0  0  0  0  0
   21.2307   19.1762   24.9406 H   0  0  0  0  0  0  0  0  0  0  0  0
   20.1160   20.6073   23.7378 C   0  0  0  0  0  0  0  0  0  0  0  0
   19.1133   20.8003   24.1456 H   0  0  0  0  0  0  0  0  0  0  0  0
   20.0938   20.9379   22.2244 C   0  0  0  0  0  0  0  0  0  0  0  0
   19.9224   22.0148   22.0982 H   0  0  0  0  0  0  0  0  0  0  0  0
   21.0847   20.7543   21.7919 H   0  0  0  0  0  0  0  0  0  0  0  0
   19.0218   20.1865   21.3961 C   0  0  0  0  0  0  0  0  0  0  0  0
   18.0573   20.6989   21.5149 H   0  0  0  0  0  0  0  0  0  0  0  0
   19.2800   20.2732   20.3320 H   0  0  0  0  0  0  0  0  0  0  0  0
   21.0397   21.4968   24.3549 O   0  0  0  0  0  0  0  0  0  0  0  0
   20.7346   22.4059   24.1531 H   0  0  0  0  0  0  0  0  0  0  0  0
  1  2  1  0  0  0  0
  1  3  1  0  0  0  0
  1  4  1  0  0  0  0
  4  5  1  0  0  0  0
  4  6  1  0  0  0  0
  4  7  1  0  0  0  0
  7  8  1  0  0  0  0
  7  9  1  0  0  0  0
  7 10  1  0  0  0  0
 10 11  1  0  0  0  0
 10 12  1  0  0  0  0
 10 13  1  0  0  0  0
 13 14  1  0  0  0  0
 13 15  1  0  0  0  0
 15 16  1  0  0  0  0
 15 17  1  0  0  0  0
  1 18  1  0  0  0  0
 15 18  1  0  0  0  0
 18 19  1  0  0  0  0
 18 20  1  0  0  0  0
 13 21  1  0  0  0  0
 21 22  1  0  0  0  0
M  END
> <VConfSearch Rank>
841

> <Conf_Id>
141

> <Delta U+W>
0.000

> <U+W>
6.423

> <U>
8.781

> <W>
-2.358

> <W(PB)>
-4.373

> <W(SA)>
2.015

> <Valence>
13.328

> <Coulomb>
-8.387

> <VdW>
3.840

> <VdW6>
-9.744

> <VdW12>
13.584

> <Bond>
0.436

> <Angle>
3.478

> <Pdih>
9.415

> <Idih>
0.000

> <Tether>
0.000

$$$$
VeraChem MOL file


 22 22  0  0  0  0  0  0  0  0999 V2000     
   20.2163   19.6770   20.9264 C   0  0  0  0  0  0  0  0  0  0  0  0
   20.9423   18.8575   21.0158 H   0  0  0  0  0  0  0  0  0  0  0  0
   20.1300   19.8905   19.8523 H   0  0  0  0  0  0  0  0  0  0  0  0
   20.7397   20.9582   21.6194 C   0  0  0  0  0  0  0  0  0  0  0  0
   21.5941   21.3422   21.0455 H   0  0  0  0  0  0  0  0  0  0  0  0
   19.9700   21.7404   21.5680 H   0  0  0  0  0  0  0  0  0  0  0  0
   21.1875   20.7774   23.0881 C   0  0  0  0  0  0  0  0  0  0  0  0
   21.4703   21.7625   23.4836 H   0  0  0  0  0  0  0  0  0  0  0  0
   22.1016   20.1687   23.1185 H   0  0  0  0  0  0  0  0  0  0  0  0
   20.1228   20.1559   24.0247 C   0  0  0  0  0  0  0  0  0  0  0  0
   20.4680   20.2945   25.0578 H   0  0  0  0  0  0  0  0  0  0  0  0
   19.1723   20.6992   23.9449 H   0  0  0  0  0  0  0  0  0  0  0  0
   19.9077   18.6478   23.7657 C   0  0  0  0  0  0  0  0  0  0  0  0
   20.8655   18.2138   23.4446 H   0  0  0  0  0  0  0  0  0  0  0  0
   18.8449   18.3264   22.6904 C   0  0  0  0  0  0  0  0  0  0  0  0
   19.0045   17.2899   22.3663 H   0  0  0  0  0  0  0  0  0  0  0  0
   17.8468   18.3480   23.1481 H   0  0  0  0  0  0  0  0  0  0  0  0
   18.8241   19.2409   21.4400 C   0  0  0  0  0  0  0  0  0  0  0  0
   18.2991   18.7059   20.6369 H   0  0  0  0  0  0  0  0  0  0  0  0
   18.2155   20.1318   21.6465 H   0  0  0  0  0  0  0  0  0  0  0  0
   19.5071   18.0265   24.9809 O   0  0  0  0  0  0  0  0  0  0  0  0
   20.2289   18.1776   25.6265 H   0  0  0  0  0  0  0  0  0  0  0  0
  1  2  1  0  0  0  0
  1  3  1  0  0  0  0
  1  4  1  0  0  0  0
  4  5  1  0  0  0  0
  4  6  1  0  0  0  0
  4  7  1  0  0  0  0
  7  8  1  0  0  0  0
  7  9  1  0  0  0  0
  7 10  1  0  0  0  0
 10 11  1  0  0  0  0
 10 12  1  0  0  0  0
 10 13  1  0  0  0  0
 13 14  1  0  0  0  0
 13 15  1  0  0  0  0
 15 16  1  0  0  0  0
 15 17  1  0  0  0  0
  1 18  1  0  0  0  0
 15 18  1  0  0  0  0
 18 19  1  0  0  0  0
 18 20  1  0  0  0  0
 13 21  1  0  0  0  0
 21 22  1  0  0  0  0
M  END
> <VConfSearch Rank>
842

> <Conf_Id>
144

> <Delta U+W>
-3.291

> <U+W>
3.132

> <U>
5.411

> <W>
-2.279

> <W(PB)>
-4.300

> <W(SA)>
2.021

> <Valence>
11.909

> <Coulomb>
-8.733

> <VdW>
2.236

> <VdW6>
-8.936

> <VdW12>
11.172

> <Bond>
0.223

> <Angle>
2.457

> <Pdih>
9.228

> <Idih>
0.000

> <Tether>
0.000

$$$$
VeraChem MOL file


 22 22  0  0  0  0  0  0  0  0999 V2000     
   21.5922   19.7338   22.1633 C   0  0  0  0  0  0  0  0  0  0  0  0
   22.5258   20.0677   21.6902 H   0  0  0  0  0  0  0  0  0  0  0  0
   21.8685   18.9052   22.8294 H   0  0  0  0  0  0  0  0  0  0  0  0
   20.6372   19.2490   21.0475 C   0  0  0  0  0  0  0  0  0  0  0  0
   20.1234   20.1133   20.6050 H   0  0  0  0  0  0  0  0  0  0  0  0
   21.2334   18.8146   20.2334 H   0  0  0  0  0  0  0  0  0  0  0  0
   19.5936   18.1945   21.4890 C   0  0  0  0  0  0  0  0  0  0  0  0
   20.0578   17.1992   21.4621 H   0  0  0  0  0  0  0  0  0  0  0  0
   18.7925   18.1703   20.7376 H   0  0  0  0  0  0  0  0  0  0  0  0
   18.9647   18.3954   22.8899 C   0  0  0  0  0  0  0  0  0  0  0  0
   18.0400   17.8041   22.9308 H   0  0  0  0  0  0  0  0  0  0  0  0
   19.6290   17.9620   23.6487 H   0  0  0  0  0  0  0  0  0  0  0  0
   18.6549   19.8632   23.2604 C   0  0  0  0  0  0  0  0  0  0  0  0
   18.3533   20.4148   22.3587 H   0  0  0  0  0  0  0  0  0  0  0  0
   19.8565   20.5728   23.9249 C   0  0  0  0  0  0  0  0  0  0  0  0
   19.5032   21.5045   24.3867 H   0  0  0  0  0  0  0  0  0  0  0  0
   20.2393   19.9534   24.7464 H   0  0  0  0  0  0  0  0  0  0  0  0
   21.0216   20.9251   22.9698 C   0  0  0  0  0  0  0  0  0  0  0  0
   20.6982   21.7135   22.2764 H   0  0  0  0  0  0  0  0  0  0  0  0
   21.8327   21.3651   23.5658 H   0  0  0  0  0  0  0  0  0  0  0  0
   17.5765   19.8721   24.1863 O   0  0  0  0  0  0  0  0  0  0  0  0
   17.8816   19.3721   24.9712 H   0  0  0  0  0  0  0  0  0  0  0  0
  1  2  1  0  0  0  0
  1  3  1  0  0  0  0
  1  4  1  0  0  0  0
  4  5  1  0  0  0  0
  4  6  1  0  0  0  0
  4  7  1  0  0  0  0
  7  8  1  0  0  0  0
  7  9  1  0  0  0  0
  7 10  1  0  0  0  0
 10 11  1  0  0  0  0
 10 12  1  0  0  0  0
 10 13  1  0  0  0  0
 13 14  1  0  0  0  0
 13 15  1  0  0  0  0
 15 16  1  0  0  0  0
 15 17  1  0  0  0  0
  1 18  1  0  0  0  0
 15 18  1  0  0  0  0
 18 19  1  0  0  0  0
 18 20  1  0  0  0  0
 13 21  1  0  0  0  0
 21 22  1  0  0  0  0
M  END
> <VConfSearch Rank>
843

> <Conf_Id>
76

> <Delta U+W>
-3.175

> <U+W>
3.248

> <U>
5.336

> <W>
-2.088

> <W(PB)>
-4.098

> <W(SA)>
2.010

> <Valence>
12.390

> <Coulomb>
-9.270

> <VdW>
2.216

> <VdW6>
-8.967

> <VdW12>
11.183

> <Bond>
0.218

> <Angle>
2.426

> <Pdih>
9.745

> <Idih>
0.000

> <Tether>
0.000

$$$$
VeraChem MOL file


 22 22  0  0  0  0  0  0  0  0999 V2000     
   19.4038   18.8802   24.3052 C   0  0  0  0  0  0  0  0  0  0  0  0
   19.9823   18.6011   25.1964 H   0  0  0  0  0  0  0  0  0  0  0  0
   18.3484   18.7588   24.5848 H   0  0  0  0  0  0  0  0  0  0  0  0
   19.7417   17.8782   23.1755 C   0  0  0  0  0  0  0  0  0  0  0  0
   20.8037   17.6039   23.2342 H   0  0  0  0  0  0  0  0  0  0  0  0
   19.1876   16.9495   23.3685 H   0  0  0  0  0  0  0  0  0  0  0  0
   19.4157   18.3696   21.7459 C   0  0  0  0  0  0  0  0  0  0  0  0
   18.4870   18.9563   21.7336 H   0  0  0  0  0  0  0  0  0  0  0  0
   19.2279   17.4889   21.1170 H   0  0  0  0  0  0  0  0  0  0  0  0
   20.5800   19.1672   21.1053 C   0  0  0  0  0  0  0  0  0  0  0  0
   21.5074   18.5875   21.1965 H   0  0  0  0  0  0  0  0  0  0  0  0
   20.3925   19.2557   20.0272 H   0  0  0  0  0  0  0  0  0  0  0  0
   20.8239   20.5874   21.6645 C   0  0  0  0  0  0  0  0  0  0  0  0
   21.7774   20.9352   21.2414 H   0  0  0  0  0  0  0  0  0  0  0  0
   20.9500   20.6762   23.2061 C   0  0  0  0  0  0  0  0  0  0  0  0
   21.7572   20.0177   23.5519 H   0  0  0  0  0  0  0  0  0  0  0  0
   21.2731   21.6956   23.4536 H   0  0  0  0  0  0  0  0  0  0  0  0
   19.6472   20.3759   23.9922 C   0  0  0  0  0  0  0  0  0  0  0  0
   19.6768   20.9194   24.9462 H   0  0  0  0  0  0  0  0  0  0  0  0
   18.7804   20.7810   23.4538 H   0  0  0  0  0  0  0  0  0  0  0  0
   19.7925   21.4561   21.2067 O   0  0  0  0  0  0  0  0  0  0  0  0
   19.9555   22.3266   21.6236 H   0  0  0  0  0  0  0  0  0  0  0  0
  1  2  1  0  0  0  0
  1  3  1  0  0  0  0
  1  4  1  0  0  0  0
  4  5  1  0  0  0  0
  4  6  1  0  0  0  0
  4  7  1  0  0  0  0
  7  8  1  0  0  0  0
  7  9  1  0  0  0  0
  7 10  1  0  0  0  0
 10 11  1  0  0  0  0
 10 12  1  0  0  0  0
 10 13  1  0  0  0  0
 13 14  1  0  0  0  0
 13 15  1  0  0  0  0
 15 16  1  0  0  0  0
 15 17  1  0  0  0  0
  1 18  1  0  0  0  0
 15 18  1  0  0  0  0
 18 19  1  0  0  0  0
 18 20  1  0  0  0  0
 13 21  1  0  0  0  0
 21 22  1  0  0  0  0
M  END
> <VConfSearch Rank>
844

> <Conf_Id>
95

> <Delta U+W>
-2.289

> <U+W>
4.134

> <U>
6.373

> <W>
-2.240

> <W(PB)>
-4.254

> <W(SA)>
2.015

> <Valence>
12.093

> <Coulomb>
-8.058

> <VdW>
2.339

> <VdW6>
-9.683

> <VdW12>
12.022

> <Bond>
0.268

> <Angle>
3.005

> <Pdih>
8.820

> <Idih>
0.000

> <Tether>
0.000

$$$$
VeraChem MOL file


 22 22  0  0  0  0  0  0  0  0999 V2000     
   20.4078   19.0103   20.9351 C   0  0  0  0  0  0  0  0  0  0  0  0
   20.3385   19.5745   19.9951 H   0  0  0  0  0  0  0  0  0  0  0  0
   20.7717   18.0118   20.6571 H   0  0  0  0  0  0  0  0  0  0  0  0
   18.9840   18.8780   21.5263 C   0  0  0  0  0  0  0  0  0  0  0  0
   18.4171   19.7968   21.3243 H   0  0  0  0  0  0  0  0  0  0  0  0
   18.4608   18.0838   20.9764 H   0  0  0  0  0  0  0  0  0  0  0  0
   18.9292   18.5612   23.0389 C   0  0  0  0  0  0  0  0  0  0  0  0
   19.7332   17.8694   23.3252 H   0  0  0  0  0  0  0  0  0  0  0  0
   17.9870   18.0347   23.2424 H   0  0  0  0  0  0  0  0  0  0  0  0
   18.9566   19.8371   23.9179 C   0  0  0  0  0  0  0  0  0  0  0  0
   18.1992   20.5419   23.5512 H   0  0  0  0  0  0  0  0  0  0  0  0
   18.6379   19.5702   24.9339 H   0  0  0  0  0  0  0  0  0  0  0  0
   20.3130   20.5727   24.0103 C   0  0  0  0  0  0  0  0  0  0  0  0
   20.1210   21.5310   24.5143 H   0  0  0  0  0  0  0  0  0  0  0  0
   20.9776   20.9005   22.6497 C   0  0  0  0  0  0  0  0  0  0  0  0
   20.2972   21.5050   22.0364 H   0  0  0  0  0  0  0  0  0  0  0  0
   21.8435   21.5421   22.8580 H   0  0  0  0  0  0  0  0  0  0  0  0
   21.4718   19.6709   21.8439 C   0  0  0  0  0  0  0  0  0  0  0  0
   22.3127   19.9804   21.2088 H   0  0  0  0  0  0  0  0  0  0  0  0
   21.8869   18.9188   22.5278 H   0  0  0  0  0  0  0  0  0  0  0  0
   21.2063   19.8160   24.8217 O   0  0  0  0  0  0  0  0  0  0  0  0
   20.7332   19.6229   25.6566 H   0  0  0  0  0  0  0  0  0  0  0  0
  1  2  1  0  0  0  0
  1  3  1  0  0  0  0
  1  4  1  0  0  0  0
  4  5  1  0  0  0  0
  4  6  1  0  0  0  0
  4  7  1  0  0  0  0
  7  8  1  0  0  0  0
  7  9  1  0  0  0  0
  7 10  1  0  0  0  0
 10 11  1  0  0  0  0
 10 12  1  0  0  0  0
 10 13  1  0  0  0  0
 13 14  1  0  0  0  0
 13 15  1  0  0  0  0
 15 16  1  0  0  0  0
 15 17  1  0  0  0  0
  1 18  1  0  0  0  0
 15 18  1  0  0  0  0
 18 19  1  0  0  0  0
 18 20  1  0  0  0  0
 13 21  1  0  0  0  0
 21 22  1  0  0  0  0
M  END
> <VConfSearch Rank>
845

> <Conf_Id>
41

> <Delta U+W>
-2.114

> <U+W>
4.310

> <U>
6.598

> <W>
-2.289

> <W(PB)>
-4.294

> <W(SA)>
2.005

> <Valence>
12.082

> <Coulomb>
-7.801

> <VdW>
2.317

> <VdW6>
-9.658

> <VdW12>
11.975

> <Bond>
0.267

> <Angle>
3.051

> <Pdih>
8.764

> <Idih>
0.000

> <Tether>
0.000

$$$$
VeraChem MOL file


 22 22  0  0  0  0  0  0  0  0999 V2000     
   21.2498   18.8132   21.7686 C   0  0  0  0  0  0  0  0  0  0  0  0
   21.8646   18.1250   21.1729 H   0  0  0  0  0  0  0  0  0  0  0  0
   21.5530   19.8282   21.4768 H   0  0  0  0  0  0  0  0  0  0  0  0
   21.5619   18.5573   23.2601 C   0  0  0  0  0  0  0  0  0  0  0  0
   21.1953   17.5623   23.5468 H   0  0  0  0  0  0  0  0  0  0  0  0
   22.6521   18.5255   23.3899 H   0  0  0  0  0  0  0  0  0  0  0  0
   20.9903   19.6158   24.2287 C   0  0  0  0  0  0  0  0  0  0  0  0
   21.5154   20.5687   24.0798 H   0  0  0  0  0  0  0  0  0  0  0  0
   21.2333   19.3033   25.2531 H   0  0  0  0  0  0  0  0  0  0  0  0
   19.4559   19.8349   24.1360 C   0  0  0  0  0  0  0  0  0  0  0  0
   18.9330   18.8727   24.2071 H   0  0  0  0  0  0  0  0  0  0  0  0
   19.1478   20.4056   25.0214 H   0  0  0  0  0  0  0  0  0  0  0  0
   18.9553   20.6151   22.8931 C   0  0  0  0  0  0  0  0  0  0  0  0
   17.9373   20.9595   23.1259 H   0  0  0  0  0  0  0  0  0  0  0  0
   18.8440   19.7972   21.5802 C   0  0  0  0  0  0  0  0  0  0  0  0
   17.8073   19.4491   21.4849 H   0  0  0  0  0  0  0  0  0  0  0  0
   19.0021   20.4686   20.7259 H   0  0  0  0  0  0  0  0  0  0  0  0
   19.7664   18.5636   21.4179 C   0  0  0  0  0  0  0  0  0  0  0  0
   19.3789   17.7270   22.0149 H   0  0  0  0  0  0  0  0  0  0  0  0
   19.7036   18.2328   20.3722 H   0  0  0  0  0  0  0  0  0  0  0  0
   19.7607   21.7698   22.6719 O   0  0  0  0  0  0  0  0  0  0  0  0
   19.3757   22.2404   21.9049 H   0  0  0  0  0  0  0  0  0  0  0  0
  1  2  1  0  0  0  0
  1  3  1  0  0  0  0
  1  4  1  0  0  0  0
  4  5  1  0  0  0  0
  4  6  1  0  0  0  0
  4  7  1  0  0  0  0
  7  8  1  0  0  0  0
  7  9  1  0  0  0  0
  7 10  1  0  0  0  0
 10 11  1  0  0  0  0
 10 12  1  0  0  0  0
 10 13  1  0  0  0  0
 13 14  1  0  0  0  0
 13 15  1  0  0  0  0
 15 16  1  0  0  0  0
 15 17  1  0  0  0  0
  1 18  1  0  0  0  0
 15 18  1  0  0  0  0
 18 19  1  0  0  0  0
 18 20  1  0  0  0  0
 13 21  1  0  0  0  0
 21 22  1  0  0  0  0
M  END
> <VConfSearch Rank>
846

> <Conf_Id>
104

> <Delta U+W>
-1.172

> <U+W>
5.252

> <U>
7.482

> <W>
-2.230

> <W(PB)>
-4.220

> <W(SA)>
1.990

> <Valence>
12.309

> <Coulomb>
-7.084

> <VdW>
2.258

> <VdW6>
-9.770

> <VdW12>
12.028

> <Bond>
0.284

> <Angle>
3.491

> <Pdih>
8.535

> <Idih>
0.000

> <Tether>
0.000

$$$$
VeraChem MOL file


 22 22  0  0  0  0  0  0  0  0999 V2000     
   19.7828   20.6345   21.4316 C   0  0  0  0  0  0  0  0  0  0  0  0
   18.7458   20.8218   21.7413 H   0  0  0  0  0  0  0  0  0  0  0  0
   19.9371   21.2260   20.5188 H   0  0  0  0  0  0  0  0  0  0  0  0
   19.9912   19.1459   21.0712 C   0  0  0  0  0  0  0  0  0  0  0  0
   19.6001   18.9724   20.0591 H   0  0  0  0  0  0  0  0  0  0  0  0
   21.0664   18.9360   20.9998 H   0  0  0  0  0  0  0  0  0  0  0  0
   19.3146   18.1242   22.0199 C   0  0  0  0  0  0  0  0  0  0  0  0
   19.8670   17.1762   21.9610 H   0  0  0  0  0  0  0  0  0  0  0  0
   18.3114   17.9011   21.6316 H   0  0  0  0  0  0  0  0  0  0  0  0
   19.1593   18.5316   23.5102 C   0  0  0  0  0  0  0  0  0  0  0  0
   18.3021   19.2101   23.6093 H   0  0  0  0  0  0  0  0  0  0  0  0
   18.8835   17.6346   24.0797 H   0  0  0  0  0  0  0  0  0  0  0  0
   20.3854   19.1775   24.1954 C   0  0  0  0  0  0  0  0  0  0  0  0
   20.2654   19.0382   25.2794 H   0  0  0  0  0  0  0  0  0  0  0  0
   20.4781   20.7002   23.9483 C   0  0  0  0  0  0  0  0  0  0  0  0
   19.5405   21.1674   24.2765 H   0  0  0  0  0  0  0  0  0  0  0  0
   21.2570   21.1068   24.6065 H   0  0  0  0  0  0  0  0  0  0  0  0
   20.7807   21.1480   22.4968 C   0  0  0  0  0  0  0  0  0  0  0  0
   20.7732   22.2463   22.4753 H   0  0  0  0  0  0  0  0  0  0  0  0
   21.8029   20.8547   22.2220 H   0  0  0  0  0  0  0  0  0  0  0  0
   21.5830   18.5403   23.7782 O   0  0  0  0  0  0  0  0  0  0  0  0
   21.5762   18.6337   22.8048 H   0  0  0  0  0  0  0  0  0  0  0  0
  1  2  1  0  0  0  0
  1  3  1  0  0  0  0
  1  4  1  0  0  0  0
  4  5  1  0  0  0  0
  4  6  1  0  0  0  0
  4  7  1  0  0  0  0
  7  8  1  0  0  0  0
  7  9  1  0  0  0  0
  7 10  1  0  0  0  0
 10 11  1  0  0  0  0
 10 12  1  0  0  0  0
 10 13  1  0  0  0  0
 13 14  1  0  0  0  0
 13 15  1  0  0  0  0
 15 16  1  0  0  0  0
 15 17  1  0  0  0  0
  1 18  1  0  0  0  0
 15 18  1  0  0  0  0
 18 19  1  0  0  0  0
 18 20  1  0  0  0  0
 13 21  1  0  0  0  0
 21 22  1  0  0  0  0
M  END
> <VConfSearch Rank>
847

> <Conf_Id>
99

> <Delta U+W>
-3.852

> <U+W>
2.572

> <U>
3.922

> <W>
-1.350

> <W(PB)>
-3.345

> <W(SA)>
1.995

> <Valence>
12.571

> <Coulomb>
-10.581

> <VdW>
1.932

> <VdW6>
-10.483

> <VdW12>
12.415

> <Bond>
0.268

> <Angle>
3.728

> <Pdih>
8.575

> <Idih>
0.000

> <Tether>
0.000

$$$$
VeraChem MOL file


 22 22  0  0  0  0  0  0  0  0999 V2000     
   20.7135   18.5299   23.7917 C   0  0  0  0  0  0  0  0  0  0  0  0
   20.9573   17.5142   24.1324 H   0  0  0  0  0  0  0  0  0  0  0  0
   21.0964   19.1923   24.5796 H   0  0  0  0  0  0  0  0  0  0  0  0
   19.1635   18.6440   23.7014 C   0  0  0  0  0  0  0  0  0  0  0  0
   18.7363   17.6777   24.0032 H   0  0  0  0  0  0  0  0  0  0  0  0
   18.7929   19.3620   24.4453 H   0  0  0  0  0  0  0  0  0  0  0  0
   18.5889   18.9992   22.3062 C   0  0  0  0  0  0  0  0  0  0  0  0
   17.5000   18.8572   22.3336 H   0  0  0  0  0  0  0  0  0  0  0  0
   18.9430   18.2729   21.5641 H   0  0  0  0  0  0  0  0  0  0  0  0
   18.8675   20.4425   21.8021 C   0  0  0  0  0  0  0  0  0  0  0  0
   18.7755   20.4474   20.7083 H   0  0  0  0  0  0  0  0  0  0  0  0
   18.0634   21.0973   22.1636 H   0  0  0  0  0  0  0  0  0  0  0  0
   20.2147   21.1039   22.1836 C   0  0  0  0  0  0  0  0  0  0  0  0
   20.3173   22.0030   21.5591 H   0  0  0  0  0  0  0  0  0  0  0  0
   21.4862   20.2500   21.9549 C   0  0  0  0  0  0  0  0  0  0  0  0
   21.7040   20.2323   20.8793 H   0  0  0  0  0  0  0  0  0  0  0  0
   22.3298   20.7836   22.4129 H   0  0  0  0  0  0  0  0  0  0  0  0
   21.4911   18.7858   22.4754 C   0  0  0  0  0  0  0  0  0  0  0  0
   21.1230   18.1128   21.6911 H   0  0  0  0  0  0  0  0  0  0  0  0
   22.5371   18.4867   22.6272 H   0  0  0  0  0  0  0  0  0  0  0  0
   20.1676   21.5354   23.5344 O   0  0  0  0  0  0  0  0  0  0  0  0
   20.0769   20.7057   24.0446 H   0  0  0  0  0  0  0  0  0  0  0  0
  1  2  1  0  0  0  0
  1  3  1  0  0  0  0
  1  4  1  0  0  0  0
  4  5  1  0  0  0  0
  4  6  1  0  0  0  0
  4  7  1  0  0  0  0
  7  8  1  0  0  0  0
  7  9  1  0  0  0  0
  7 10  1  0  0  0  0
 10 11  1  0  0  0  0
 10 12  1  0  0  0  0
 10 13  1  0  0  0  0
 13 14  1  0  0  0  0
 13 15  1  0  0  0  0
 15 16  1  0  0  0  0
 15 17  1  0  0  0  0
  1 18  1  0  0  0  0
 15 18  1  0  0  0  0
 18 19  1  0  0  0  0
 18 20  1  0  0  0  0
 13 21  1  0  0  0  0
 21 22  1  0  0  0  0
M  END
> <VConfSearch Rank>
848

> <Conf_Id>
98

> <Delta U+W>
0.930

> <U+W>
7.353

> <U>
8.455

> <W>
-1.102

> <W(PB)>
-3.101

> <W(SA)>
2.000

> <Valence>
15.601

> <Coulomb>
-10.573

> <VdW>
3.427

> <VdW6>
-11.360

> <VdW12>
14.787

> <Bond>
0.471

> <Angle>
5.445

> <Pdih>
9.685

> <Idih>
0.000

> <Tether>
0.000

$$$$
VeraChem MOL file


 22 22  0  0  0  0  0  0  0  0999 V2000     
   19.8338   21.2253   22.4092 C   0  0  0  0  0  0  0  0  0  0  0  0
   18.8275   21.0090   22.0280 H   0  0  0  0  0  0  0  0  0  0  0  0
   19.9166   22.3205   22.3901 H   0  0  0  0  0  0  0  0  0  0  0  0
   20.8964   20.6333   21.4487 C   0  0  0  0  0  0  0  0  0  0  0  0
   20.7407   21.0899   20.4617 H   0  0  0  0  0  0  0  0  0  0  0  0
   21.8983   20.9504   21.7684 H   0  0  0  0  0  0  0  0  0  0  0  0
   20.8806   19.0892   21.2750 C   0  0  0  0  0  0  0  0  0  0  0  0
   21.7011   18.6377   21.8476 H   0  0  0  0  0  0  0  0  0  0  0  0
   21.1092   18.8603   20.2252 H   0  0  0  0  0  0  0  0  0  0  0  0
   19.5438   18.3989   21.6545 C   0  0  0  0  0  0  0  0  0  0  0  0
   18.7198   18.8960   21.1278 H   0  0  0  0  0  0  0  0  0  0  0  0
   19.5578   17.3762   21.2540 H   0  0  0  0  0  0  0  0  0  0  0  0
   19.2167   18.3400   23.1755 C   0  0  0  0  0  0  0  0  0  0  0  0
   18.1675   18.6411   23.3083 H   0  0  0  0  0  0  0  0  0  0  0  0
   20.0941   19.2294   24.0917 C   0  0  0  0  0  0  0  0  0  0  0  0
   19.8508   19.0095   25.1393 H   0  0  0  0  0  0  0  0  0  0  0  0
   21.1482   18.9487   23.9788 H   0  0  0  0  0  0  0  0  0  0  0  0
   19.9408   20.7563   23.8793 C   0  0  0  0  0  0  0  0  0  0  0  0
   19.0453   21.1013   24.4140 H   0  0  0  0  0  0  0  0  0  0  0  0
   20.7908   21.2614   24.3578 H   0  0  0  0  0  0  0  0  0  0  0  0
   19.3661   16.9954   23.6169 O   0  0  0  0  0  0  0  0  0  0  0  0
   19.0996   16.9761   24.5596 H   0  0  0  0  0  0  0  0  0  0  0  0
  1  2  1  0  0  0  0
  1  3  1  0  0  0  0
  1  4  1  0  0  0  0
  4  5  1  0  0  0  0
  4  6  1  0  0  0  0
  4  7  1  0  0  0  0
  7  8  1  0  0  0  0
  7  9  1  0  0  0  0
  7 10  1  0  0  0  0
 10 11  1  0  0  0  0
 10 12  1  0  0  0  0
 10 13  1  0  0  0  0
 13 14  1  0  0  0  0
 13 15  1  0  0  0  0
 15 16  1  0  0  0  0
 15 17  1  0  0  0  0
  1 18  1  0  0  0  0
 15 18  1  0  0  0  0
 18 19  1  0  0  0  0
 18 20  1  0  0  0  0
 13 21  1  0  0  0  0
 21 22  1  0  0  0  0
M  END
> <VConfSearch Rank>
849

> <Conf_Id>
141

> <Delta U+W>
0.000

> <U+W>
6.423

> <U>
8.781

> <W>
-2.358

> <W(PB)>
-4.373

> <W(SA)>
2.015

> <Valence>
13.328

> <Coulomb>
-8.387

> <VdW>
3.840

> <VdW6>
-9.744

> <VdW12>
13.584

> <Bond>
0.436

> <Angle>
3.478

> <Pdih>
9.415

> <Idih>
0.000

> <Tether>
0.000

$$$$
VeraChem MOL file


 22 22  0  0  0  0  0  0  0  0999 V2000     
   18.6819   18.4639   22.8760 C   0  0  0  0  0  0  0  0  0  0  0  0
   19.3774   17.8132   23.4233 H   0  0  0  0  0  0  0  0  0  0  0  0
   17.7046   17.9636   22.9136 H   0  0  0  0  0  0  0  0  0  0  0  0
   19.0910   18.5841   21.3881 C   0  0  0  0  0  0  0  0  0  0  0  0
   18.9305   17.6123   20.9015 H   0  0  0  0  0  0  0  0  0  0  0  0
   18.4162   19.2870   20.8805 H   0  0  0  0  0  0  0  0  0  0  0  0
   20.5558   19.0117   21.1394 C   0  0  0  0  0  0  0  0  0  0  0  0
   20.7000   19.1258   20.0564 H   0  0  0  0  0  0  0  0  0  0  0  0
   21.2299   18.2008   21.4476 H   0  0  0  0  0  0  0  0  0  0  0  0
   20.9802   20.3277   21.8359 C   0  0  0  0  0  0  0  0  0  0  0  0
   21.9405   20.6376   21.4031 H   0  0  0  0  0  0  0  0  0  0  0  0
   20.2690   21.1326   21.6092 H   0  0  0  0  0  0  0  0  0  0  0  0
   21.1470   20.1672   23.3637 C   0  0  0  0  0  0  0  0  0  0  0  0
   21.5035   19.1470   23.5656 H   0  0  0  0  0  0  0  0  0  0  0  0
   19.8541   20.3993   24.1785 C   0  0  0  0  0  0  0  0  0  0  0  0
   20.0040   19.9553   25.1711 H   0  0  0  0  0  0  0  0  0  0  0  0
   19.7197   21.4761   24.3478 H   0  0  0  0  0  0  0  0  0  0  0  0
   18.5430   19.8367   23.5747 C   0  0  0  0  0  0  0  0  0  0  0  0
   17.8055   19.7518   24.3845 H   0  0  0  0  0  0  0  0  0  0  0  0
   18.1216   20.5649   22.8685 H   0  0  0  0  0  0  0  0  0  0  0  0
   22.1263   21.0935   23.8177 O   0  0  0  0  0  0  0  0  0  0  0  0
   22.9576   20.8801   23.3443 H   0  0  0  0  0  0  0  0  0  0  0  0
  1  2  1  0  0  0  0
  1  3  1  0  0  0  0
  1  4  1  0  0  0  0
  4  5  1  0  0  0  0
  4  6  1  0  0  0  0
  4  7  1  0  0  0  0
  7  8  1  0  0  0  0
  7  9  1  0  0  0  0
  7 10  1  0  0  0  0
 10 11  1  0  0  0  0
 10 12  1  0  0  0  0
 10 13  1  0  0  0  0
 13 14  1  0  0  0  0
 13 15  1  0  0  0  0
 15 16  1  0  0  0  0
 15 17  1  0  0  0  0
  1 18  1  0  0  0  0
 15 18  1  0  0  0  0
 18 19  1  0  0  0  0
 18 20  1  0  0  0  0
 13 21  1  0  0  0  0
 21 22  1  0  0  0  0
M  END
> <VConfSearch Rank>
850

> <Conf_Id>
144

> <Delta U+W>
-3.291

> <U+W>
3.132

> <U>
5.411

> <W>
-2.279

> <W(PB)>
-4.300

> <W(SA)>
2.021

> <Valence>
11.909

> <Coulomb>
-8.733

> <VdW>
2.236

> <VdW6>
-8.936

> <VdW12>
11.172

> <Bond>
0.223

> <Angle>
2.457

> <Pdih>
9.228

> <Idih>
0.000

> <Tether>
0.000

$$$$
VeraChem MOL file


 22 22  0  0  0  0  0  0  0  0999 V2000     
   20.7078   20.6434   21.5468 C   0  0  0  0  0  0  0  0  0  0  0  0
   21.4394   21.2099   20.9547 H   0  0  0  0  0  0  0  0  0  0  0  0
   19.7184   20.9991   21.2285 H   0  0  0  0  0  0  0  0  0  0  0  0
   20.9530   20.9604   23.0406 C   0  0  0  0  0  0  0  0  0  0  0  0
   21.7707   20.3315   23.4183 H   0  0  0  0  0  0  0  0  0  0  0  0
   21.3137   21.9943   23.1299 H   0  0  0  0  0  0  0  0  0  0  0  0
   19.7144   20.8071   23.9561 C   0  0  0  0  0  0  0  0  0  0  0  0
   19.1164   21.7273   23.9054 H   0  0  0  0  0  0  0  0  0  0  0  0
   20.0636   20.7354   24.9953 H   0  0  0  0  0  0  0  0  0  0  0  0
   18.7814   19.6086   23.6541 C   0  0  0  0  0  0  0  0  0  0  0  0
   18.1655   19.4294   24.5458 H   0  0  0  0  0  0  0  0  0  0  0  0
   18.0790   19.8900   22.8589 H   0  0  0  0  0  0  0  0  0  0  0  0
   19.5060   18.3028   23.2572 C   0  0  0  0  0  0  0  0  0  0  0  0
   20.4565   18.2282   23.8043 H   0  0  0  0  0  0  0  0  0  0  0  0
   19.7737   18.2122   21.7376 C   0  0  0  0  0  0  0  0  0  0  0  0
   20.0497   17.1784   21.4902 H   0  0  0  0  0  0  0  0  0  0  0  0
   18.8453   18.4177   21.1891 H   0  0  0  0  0  0  0  0  0  0  0  0
   20.8909   19.1439   21.2108 C   0  0  0  0  0  0  0  0  0  0  0  0
   21.8618   18.8003   21.5930 H   0  0  0  0  0  0  0  0  0  0  0  0
   20.9432   19.0335   20.1190 H   0  0  0  0  0  0  0  0  0  0  0  0
   18.6796   17.2050   23.6208 O   0  0  0  0  0  0  0  0  0  0  0  0
   17.8461   17.3073   23.1168 H   0  0  0  0  0  0  0  0  0  0  0  0
  1  2  1  0  0  0  0
  1  3  1  0  0  0  0
  1  4  1  0  0  0  0
  4  5  1  0  0  0  0
  4  6  1  0  0  0  0
  4  7  1  0  0  0  0
  7  8  1  0  0  0  0
  7  9  1  0  0  0  0
  7 10  1  0  0  0  0
 10 11  1  0  0  0  0
 10 12  1  0  0  0  0
 10 13  1  0  0  0  0
 13 14  1  0  0  0  0
 13 15  1  0  0  0  0
 15 16  1  0  0  0  0
 15 17  1  0  0  0  0
  1 18  1  0  0  0  0
 15 18  1  0  0  0  0
 18 19  1  0  0  0  0
 18 20  1  0  0  0  0
 13 21  1  0  0  0  0
 21 22  1  0  0  0  0
M  END
> <VConfSearch Rank>
851

> <Conf_Id>
76

> <Delta U+W>
-3.175

> <U+W>
3.248

> <U>
5.336

> <W>
-2.088

> <W(PB)>
-4.098

> <W(SA)>
2.010

> <Valence>
12.390

> <Coulomb>
-9.270

> <VdW>
2.216

> <VdW6>
-8.967

> <VdW12>
11.183

> <Bond>
0.218

> <Angle>
2.426

> <Pdih>
9.745

> <Idih>
0.000

> <Tether>
0.000

$$$$
VeraChem MOL file


 22 22  0  0  0  0  0  0  0  0999 V2000     
   19.8502   20.8306   21.3279 C   0  0  0  0  0  0  0  0  0  0  0  0
   19.3385   20.6934   20.3655 H   0  0  0  0  0  0  0  0  0  0  0  0
   20.1360   21.8906   21.3652 H   0  0  0  0  0  0  0  0  0  0  0  0
   21.1330   19.9652   21.3216 C   0  0  0  0  0  0  0  0  0  0  0  0
   20.9390   19.0259   20.7862 H   0  0  0  0  0  0  0  0  0  0  0  0
   21.8935   20.4900   20.7274 H   0  0  0  0  0  0  0  0  0  0  0  0
   21.7166   19.6500   22.7186 C   0  0  0  0  0  0  0  0  0  0  0  0
   21.6079   20.5098   23.3937 H   0  0  0  0  0  0  0  0  0  0  0  0
   22.7967   19.4846   22.6075 H   0  0  0  0  0  0  0  0  0  0  0  0
   21.1061   18.3730   23.3497 C   0  0  0  0  0  0  0  0  0  0  0  0
   21.1641   17.5498   22.6262 H   0  0  0  0  0  0  0  0  0  0  0  0
   21.7342   18.0660   24.1963 H   0  0  0  0  0  0  0  0  0  0  0  0
   19.6500   18.4898   23.8549 C   0  0  0  0  0  0  0  0  0  0  0  0
   19.3158   17.4707   24.0973 H   0  0  0  0  0  0  0  0  0  0  0  0
   18.6415   19.0687   22.8310 C   0  0  0  0  0  0  0  0  0  0  0  0
   18.6498   18.4615   21.9166 H   0  0  0  0  0  0  0  0  0  0  0  0
   17.6357   18.9518   23.2546 H   0  0  0  0  0  0  0  0  0  0  0  0
   18.8478   20.5643   22.4762 C   0  0  0  0  0  0  0  0  0  0  0  0
   17.8802   20.9954   22.1857 H   0  0  0  0  0  0  0  0  0  0  0  0
   19.1590   21.1237   23.3682 H   0  0  0  0  0  0  0  0  0  0  0  0
   19.6286   19.2602   25.0524 O   0  0  0  0  0  0  0  0  0  0  0  0
   18.6880   19.3528   25.3077 H   0  0  0  0  0  0  0  0  0  0  0  0
  1  2  1  0  0  0  0
  1  3  1  0  0  0  0
  1  4  1  0  0  0  0
  4  5  1  0  0  0  0
  4  6  1  0  0  0  0
  4  7  1  0  0  0  0
  7  8  1  0  0  0  0
  7  9  1  0  0  0  0
  7 10  1  0  0  0  0
 10 11  1  0  0  0  0
 10 12  1  0  0  0  0
 10 13  1  0  0  0  0
 13 14  1  0  0  0  0
 13 15  1  0  0  0  0
 15 16  1  0  0  0  0
 15 17  1  0  0  0  0
  1 18  1  0  0  0  0
 15 18  1  0  0  0  0
 18 19  1  0  0  0  0
 18 20  1  0  0  0  0
 13 21  1  0  0  0  0
 21 22  1  0  0  0  0
M  END
> <VConfSearch Rank>
852

> <Conf_Id>
95

> <Delta U+W>
-2.289

> <U+W>
4.134

> <U>
6.373

> <W>
-2.240

> <W(PB)>
-4.254

> <W(SA)>
2.015

> <Valence>
12.093

> <Coulomb>
-8.058

> <VdW>
2.339

> <VdW6>
-9.683

> <VdW12>
12.022

> <Bond>
0.268

> <Angle>
3.005

> <Pdih>
8.820

> <Idih>
0.000

> <Tether>
0.000

$$$$
VeraChem MOL file


 22 22  0  0  0  0  0  0  0  0999 V2000     
   19.4978   21.1700   23.6959 C   0  0  0  0  0  0  0  0  0  0  0  0
   20.0964   22.0538   23.9553 H   0  0  0  0  0  0  0  0  0  0  0  0
   18.4912   21.3658   24.0899 H   0  0  0  0  0  0  0  0  0  0  0  0
   20.0952   19.9475   24.4327 C   0  0  0  0  0  0  0  0  0  0  0  0
   21.1889   20.0416   24.4704 H   0  0  0  0  0  0  0  0  0  0  0  0
   19.7614   19.9854   25.4787 H   0  0  0  0  0  0  0  0  0  0  0  0
   19.7170   18.5726   23.8345 C   0  0  0  0  0  0  0  0  0  0  0  0
   18.6786   18.5720   23.4758 H   0  0  0  0  0  0  0  0  0  0  0  0
   19.7617   17.8271   24.6399 H   0  0  0  0  0  0  0  0  0  0  0  0
   20.6899   18.1192   22.7168 C   0  0  0  0  0  0  0  0  0  0  0  0
   21.7217   18.2134   23.0791 H   0  0  0  0  0  0  0  0  0  0  0  0
   20.5416   17.0467   22.5362 H   0  0  0  0  0  0  0  0  0  0  0  0
   20.5704   18.8616   21.3661 C   0  0  0  0  0  0  0  0  0  0  0  0
   21.4298   18.5497   20.7551 H   0  0  0  0  0  0  0  0  0  0  0  0
   20.6164   20.4075   21.4588 C   0  0  0  0  0  0  0  0  0  0  0  0
   21.5460   20.7259   21.9477 H   0  0  0  0  0  0  0  0  0  0  0  0
   20.6704   20.7924   20.4323 H   0  0  0  0  0  0  0  0  0  0  0  0
   19.3957   21.0630   22.1556 C   0  0  0  0  0  0  0  0  0  0  0  0
   19.2638   22.0771   21.7551 H   0  0  0  0  0  0  0  0  0  0  0  0
   18.4781   20.5235   21.8862 H   0  0  0  0  0  0  0  0  0  0  0  0
   19.3804   18.4463   20.7026 O   0  0  0  0  0  0  0  0  0  0  0  0
   19.3939   17.4677   20.6867 H   0  0  0  0  0  0  0  0  0  0  0  0
  1  2  1  0  0  0  0
  1  3  1  0  0  0  0
  1  4  1  0  0  0  0
  4  5  1  0  0  0  0
  4  6  1  0  0  0  0
  4  7  1  0  0  0  0
  7  8  1  0  0  0  0
  7  9  1  0  0  0  0
  7 10  1  0  0  0  0
 10 11  1  0  0  0  0
 10 12  1  0  0  0  0
 10 13  1  0  0  0  0
 13 14  1  0  0  0  0
 13 15  1  0  0  0  0
 15 16  1  0  0  0  0
 15 17  1  0  0  0  0
  1 18  1  0  0  0  0
 15 18  1  0  0  0  0
 18 19  1  0  0  0  0
 18 20  1  0  0  0  0
 13 21  1  0  0  0  0
 21 22  1  0  0  0  0
M  END
> <VConfSearch Rank>
853

> <Conf_Id>
41

> <Delta U+W>
-2.114

> <U+W>
4.310

> <U>
6.598

> <W>
-2.289

> <W(PB)>
-4.294

> <W(SA)>
2.005

> <Valence>
12.082

> <Coulomb>
-7.801

> <VdW>
2.317

> <VdW6>
-9.658

> <VdW12>
11.975

> <Bond>
0.267

> <Angle>
3.051

> <Pdih>
8.764

> <Idih>
0.000

> <Tether>
0.000

$$$$
VeraChem MOL file


 22 22  0  0  0  0  0  0  0  0999 V2000     
   18.8563   19.1958   23.7866 C   0  0  0  0  0  0  0  0  0  0  0  0
   17.8968   19.0814   24.3090 H   0  0  0  0  0  0  0  0  0  0  0  0
   19.5474   18.4792   24.2514 H   0  0  0  0  0  0  0  0  0  0  0  0
   19.3444   20.6455   24.0043 C   0  0  0  0  0  0  0  0  0  0  0  0
   18.6752   21.3412   23.4802 H   0  0  0  0  0  0  0  0  0  0  0  0
   19.2557   20.8890   25.0717 H   0  0  0  0  0  0  0  0  0  0  0  0
   20.8029   20.9065   23.5684 C   0  0  0  0  0  0  0  0  0  0  0  0
   21.4864   20.3675   24.2379 H   0  0  0  0  0  0  0  0  0  0  0  0
   21.0173   21.9721   23.7253 H   0  0  0  0  0  0  0  0  0  0  0  0
   21.1223   20.5566   22.0896 C   0  0  0  0  0  0  0  0  0  0  0  0
   20.3918   21.0331   21.4236 H   0  0  0  0  0  0  0  0  0  0  0  0
   22.0898   21.0119   21.8423 H   0  0  0  0  0  0  0  0  0  0  0  0
   21.2303   19.0460   21.7575 C   0  0  0  0  0  0  0  0  0  0  0  0
   21.7600   18.9715   20.7967 H   0  0  0  0  0  0  0  0  0  0  0  0
   19.8857   18.2969   21.5676 C   0  0  0  0  0  0  0  0  0  0  0  0
   19.6591   18.2747   20.4937 H   0  0  0  0  0  0  0  0  0  0  0  0
   20.0179   17.2458   21.8559 H   0  0  0  0  0  0  0  0  0  0  0  0
   18.6384   18.8569   22.2954 C   0  0  0  0  0  0  0  0  0  0  0  0
   18.2625   19.7417   21.7642 H   0  0  0  0  0  0  0  0  0  0  0  0
   17.8400   18.1064   22.2188 H   0  0  0  0  0  0  0  0  0  0  0  0
   22.0187   18.3755   22.7372 O   0  0  0  0  0  0  0  0  0  0  0  0
   22.0848   17.4405   22.4554 H   0  0  0  0  0  0  0  0  0  0  0  0
  1  2  1  0  0  0  0
  1  3  1  0  0  0  0
  1  4  1  0  0  0  0
  4  5  1  0  0  0  0
  4  6  1  0  0  0  0
  4  7  1  0  0  0  0
  7  8  1  0  0  0  0
  7  9  1  0  0  0  0
  7 10  1  0  0  0  0
 10 11  1  0  0  0  0
 10 12  1  0  0  0  0
 10 13  1  0  0  0  0
 13 14  1  0  0  0  0
 13 15  1  0  0  0  0
 15 16  1  0  0  0  0
 15 17  1  0  0  0  0
  1 18  1  0  0  0  0
 15 18  1  0  0  0  0
 18 19  1  0  0  0  0
 18 20  1  0  0  0  0
 13 21  1  0  0  0  0
 21 22  1  0  0  0  0
M  END
> <VConfSearch Rank>
854

> <Conf_Id>
104

> <Delta U+W>
-1.172

> <U+W>
5.252

> <U>
7.482

> <W>
-2.230

> <W(PB)>
-4.220

> <W(SA)>
1.990

> <Valence>
12.309

> <Coulomb>
-7.084

> <VdW>
2.258

> <VdW6>
-9.770

> <VdW12>
12.028

> <Bond>
0.284

> <Angle>
3.491

> <Pdih>
8.535

> <Idih>
0.000

> <Tether>
0.000

$$$$
VeraChem MOL file


 22 22  0  0  0  0  0  0  0  0999 V2000     
   18.9414   20.1033   23.7552 C   0  0  0  0  0  0  0  0  0  0  0  0
   19.6746   20.1881   24.5686 H   0  0  0  0  0  0  0  0  0  0  0  0
   17.9725   20.3823   24.1916 H   0  0  0  0  0  0  0  0  0  0  0  0
   18.8335   18.6434   23.2589 C   0  0  0  0  0  0  0  0  0  0  0  0
   18.2019   18.0807   23.9602 H   0  0  0  0  0  0  0  0  0  0  0  0
   18.2882   18.6225   22.3063 H   0  0  0  0  0  0  0  0  0  0  0  0
   20.1755   17.8815   23.1171 C   0  0  0  0  0  0  0  0  0  0  0  0
   20.0458   17.0843   22.3721 H   0  0  0  0  0  0  0  0  0  0  0  0
   20.3831   17.3641   24.0638 H   0  0  0  0  0  0  0  0  0  0  0  0
   21.4334   18.7171   22.7554 C   0  0  0  0  0  0  0  0  0  0  0  0
   21.8009   19.2215   23.6583 H   0  0  0  0  0  0  0  0  0  0  0  0
   22.2322   18.0205   22.4697 H   0  0  0  0  0  0  0  0  0  0  0  0
   21.2832   19.7642   21.6280 C   0  0  0  0  0  0  0  0  0  0  0  0
   22.2893   19.9667   21.2336 H   0  0  0  0  0  0  0  0  0  0  0  0
   20.7214   21.1127   22.1323 C   0  0  0  0  0  0  0  0  0  0  0  0
   21.3652   21.4812   22.9415 H   0  0  0  0  0  0  0  0  0  0  0  0
   20.8158   21.8472   21.3219 H   0  0  0  0  0  0  0  0  0  0  0  0
   19.2520   21.1099   22.6219 C   0  0  0  0  0  0  0  0  0  0  0  0
   19.0161   22.1200   22.9836 H   0  0  0  0  0  0  0  0  0  0  0  0
   18.5770   20.9354   21.7732 H   0  0  0  0  0  0  0  0  0  0  0  0
   20.4708   19.2566   20.5809 O   0  0  0  0  0  0  0  0  0  0  0  0
   19.6298   19.0244   21.0227 H   0  0  0  0  0  0  0  0  0  0  0  0
  1  2  1  0  0  0  0
  1  3  1  0  0  0  0
  1  4  1  0  0  0  0
  4  5  1  0  0  0  0
  4  6  1  0  0  0  0
  4  7  1  0  0  0  0
  7  8  1  0  0  0  0
  7  9  1  0  0  0  0
  7 10  1  0  0  0  0
 10 11  1  0  0  0  0
 10 12  1  0  0  0  0
 10 13  1  0  0  0  0
 13 14  1  0  0  0  0
 13 15  1  0  0  0  0
 15 16  1  0  0  0  0
 15 17  1  0  0  0  0
  1 18  1  0  0  0  0
 15 18  1  0  0  0  0
 18 19  1  0  0  0  0
 18 20  1  0  0  0  0
 13 21  1  0  0  0  0
 21 22  1  0  0  0  0
M  END
> <VConfSearch Rank>
855

> <Conf_Id>
99

> <Delta U+W>
-3.852

> <U+W>
2.572

> <U>
3.922

> <W>
-1.350

> <W(PB)>
-3.345

> <W(SA)>
1.995

> <Valence>
12.571

> <Coulomb>
-10.581

> <VdW>
1.932

> <VdW6>
-10.483

> <VdW12>
12.415

> <Bond>
0.268

> <Angle>
3.728

> <Pdih>
8.575

> <Idih>
0.000

> <Tether>
0.000

$$$$
VeraChem MOL file


 22 22  0  0  0  0  0  0  0  0999 V2000     
   21.6585   19.1765   22.3633 C   0  0  0  0  0  0  0  0  0  0  0  0
   22.6643   19.4079   21.9863 H   0  0  0  0  0  0  0  0  0  0  0  0
   21.7280   18.1481   22.7422 H   0  0  0  0  0  0  0  0  0  0  0  0
   20.6717   19.2397   21.1608 C   0  0  0  0  0  0  0  0  0  0  0  0
   21.2504   19.4983   20.2633 H   0  0  0  0  0  0  0  0  0  0  0  0
   20.2613   18.2420   20.9553 H   0  0  0  0  0  0  0  0  0  0  0  0
   19.5130   20.2616   21.2863 C   0  0  0  0  0  0  0  0  0  0  0  0
   19.0167   20.3442   20.3098 H   0  0  0  0  0  0  0  0  0  0  0  0
   19.9208   21.2627   21.4737 H   0  0  0  0  0  0  0  0  0  0  0  0
   18.4252   19.9316   22.3459 C   0  0  0  0  0  0  0  0  0  0  0  0
   17.9133   20.8647   22.6139 H   0  0  0  0  0  0  0  0  0  0  0  0
   17.6577   19.3056   21.8715 H   0  0  0  0  0  0  0  0  0  0  0  0
   18.8652   19.2219   23.6501 C   0  0  0  0  0  0  0  0  0  0  0  0
   18.0182   19.2831   24.3484 H   0  0  0  0  0  0  0  0  0  0  0  0
   20.0924   19.8245   24.3775 C   0  0  0  0  0  0  0  0  0  0  0  0
   19.7774   20.7448   24.8859 H   0  0  0  0  0  0  0  0  0  0  0  0
   20.3739   19.1310   25.1811 H   0  0  0  0  0  0  0  0  0  0  0  0
   21.3605   20.1432   23.5378 C   0  0  0  0  0  0  0  0  0  0  0  0
   21.3085   21.1737   23.1651 H   0  0  0  0  0  0  0  0  0  0  0  0
   22.2234   20.1388   24.2176 H   0  0  0  0  0  0  0  0  0  0  0  0
   19.0945   17.8461   23.3895 O   0  0  0  0  0  0  0  0  0  0  0  0
   19.8507   17.8459   22.7690 H   0  0  0  0  0  0  0  0  0  0  0  0
  1  2  1  0  0  0  0
  1  3  1  0  0  0  0
  1  4  1  0  0  0  0
  4  5  1  0  0  0  0
  4  6  1  0  0  0  0
  4  7  1  0  0  0  0
  7  8  1  0  0  0  0
  7  9  1  0  0  0  0
  7 10  1  0  0  0  0
 10 11  1  0  0  0  0
 10 12  1  0  0  0  0
 10 13  1  0  0  0  0
 13 14  1  0  0  0  0
 13 15  1  0  0  0  0
 15 16  1  0  0  0  0
 15 17  1  0  0  0  0
  1 18  1  0  0  0  0
 15 18  1  0  0  0  0
 18 19  1  0  0  0  0
 18 20  1  0  0  0  0
 13 21  1  0  0  0  0
 21 22  1  0  0  0  0
M  END
> <VConfSearch Rank>
856

> <Conf_Id>
98

> <Delta U+W>
0.930

> <U+W>
7.353

> <U>
8.455

> <W>
-1.102

> <W(PB)>
-3.101

> <W(SA)>
2.000

> <Valence>
15.601

> <Coulomb>
-10.573

> <VdW>
3.427

> <VdW6>
-11.360

> <VdW12>
14.787

> <Bond>
0.471

> <Angle>
5.445

> <Pdih>
9.685

> <Idih>
0.000

> <Tether>
0.000

$$$$
VeraChem MOL file


 22 22  0  0  0  0  0  0  0  0999 V2000     
   19.3695   19.0288   21.1446 C   0  0  0  0  0  0  0  0  0  0  0  0
   19.6705   18.0087   21.4159 H   0  0  0  0  0  0  0  0  0  0  0  0
   18.8572   18.9274   20.1782 H   0  0  0  0  0  0  0  0  0  0  0  0
   20.6281   19.9111   20.9456 C   0  0  0  0  0  0  0  0  0  0  0  0
   21.2313   19.4520   20.1504 H   0  0  0  0  0  0  0  0  0  0  0  0
   20.3297   20.8960   20.5615 H   0  0  0  0  0  0  0  0  0  0  0  0
   21.5363   20.1027   22.1918 C   0  0  0  0  0  0  0  0  0  0  0  0
   21.3751   21.0981   22.6255 H   0  0  0  0  0  0  0  0  0  0  0  0
   22.5822   20.1067   21.8559 H   0  0  0  0  0  0  0  0  0  0  0  0
   21.3729   19.0248   23.2959 C   0  0  0  0  0  0  0  0  0  0  0  0
   21.4718   18.0296   22.8448 H   0  0  0  0  0  0  0  0  0  0  0  0
   22.2232   19.1067   23.9864 H   0  0  0  0  0  0  0  0  0  0  0  0
   20.0506   19.0856   24.1154 C   0  0  0  0  0  0  0  0  0  0  0  0
   19.6490   18.0645   24.1868 H   0  0  0  0  0  0  0  0  0  0  0  0
   18.9407   20.0023   23.5426 C   0  0  0  0  0  0  0  0  0  0  0  0
   18.1159   20.0559   24.2650 H   0  0  0  0  0  0  0  0  0  0  0  0
   19.3158   21.0296   23.4614 H   0  0  0  0  0  0  0  0  0  0  0  0
   18.3505   19.5591   22.1805 C   0  0  0  0  0  0  0  0  0  0  0  0
   17.6020   18.7744   22.3560 H   0  0  0  0  0  0  0  0  0  0  0  0
   17.8027   20.4064   21.7461 H   0  0  0  0  0  0  0  0  0  0  0  0
   20.3535   19.5508   25.4258 O   0  0  0  0  0  0  0  0  0  0  0  0
   19.5169   19.5247   25.9354 H   0  0  0  0  0  0  0  0  0  0  0  0
  1  2  1  0  0  0  0
  1  3  1  0  0  0  0
  1  4  1  0  0  0  0
  4  5  1  0  0  0  0
  4  6  1  0  0  0  0
  4  7  1  0  0  0  0
  7  8  1  0  0  0  0
  7  9  1  0  0  0  0
  7 10  1  0  0  0  0
 10 11  1  0  0  0  0
 10 12  1  0  0  0  0
 10 13  1  0  0  0  0
 13 14  1  0  0  0  0
 13 15  1  0  0  0  0
 15 16  1  0  0  0  0
 15 17  1  0  0  0  0
  1 18  1  0  0  0  0
 15 18  1  0  0  0  0
 18 19  1  0  0  0  0
 18 20  1  0  0  0  0
 13 21  1  0  0  0  0
 21 22  1  0  0  0  0
M  END
> <VConfSearch Rank>
857

> <Conf_Id>
141

> <Delta U+W>
0.000

> <U+W>
6.423

> <U>
8.781

> <W>
-2.358

> <W(PB)>
-4.373

> <W(SA)>
2.015

> <Valence>
13.328

> <Coulomb>
-8.387

> <VdW>
3.840

> <VdW6>
-9.744

> <VdW12>
13.584

> <Bond>
0.436

> <Angle>
3.478

> <Pdih>
9.415

> <Idih>
0.000

> <Tether>
0.000

$$$$
VeraChem MOL file


 22 22  0  0  0  0  0  0  0  0999 V2000     
   18.3071   19.4873   22.1791 C   0  0  0  0  0  0  0  0  0  0  0  0
   18.0225   19.5795   23.2360 H   0  0  0  0  0  0  0  0  0  0  0  0
   17.3661   19.4435   21.6139 H   0  0  0  0  0  0  0  0  0  0  0  0
   19.0697   18.1646   21.9245 C   0  0  0  0  0  0  0  0  0  0  0  0
   18.3696   17.3274   22.0497 H   0  0  0  0  0  0  0  0  0  0  0  0
   19.3946   18.1277   20.8757 H   0  0  0  0  0  0  0  0  0  0  0  0
   20.2866   17.9174   22.8457 C   0  0  0  0  0  0  0  0  0  0  0  0
   20.7775   16.9892   22.5227 H   0  0  0  0  0  0  0  0  0  0  0  0
   19.9366   17.7303   23.8701 H   0  0  0  0  0  0  0  0  0  0  0  0
   21.3381   19.0537   22.8594 C   0  0  0  0  0  0  0  0  0  0  0  0
   22.2392   18.6662   23.3527 H   0  0  0  0  0  0  0  0  0  0  0  0
   21.6386   19.3156   21.8366 H   0  0  0  0  0  0  0  0  0  0  0  0
   20.8508   20.3083   23.6183 C   0  0  0  0  0  0  0  0  0  0  0  0
   20.1939   19.9816   24.4373 H   0  0  0  0  0  0  0  0  0  0  0  0
   20.0739   21.3231   22.7489 C   0  0  0  0  0  0  0  0  0  0  0  0
   19.5158   21.9815   23.4271 H   0  0  0  0  0  0  0  0  0  0  0  0
   20.7870   21.9702   22.2208 H   0  0  0  0  0  0  0  0  0  0  0  0
   19.0906   20.7342   21.7065 C   0  0  0  0  0  0  0  0  0  0  0  0
   18.3757   21.5217   21.4316 H   0  0  0  0  0  0  0  0  0  0  0  0
   19.6344   20.4953   20.7825 H   0  0  0  0  0  0  0  0  0  0  0  0
   21.9781   20.9752   24.1730 O   0  0  0  0  0  0  0  0  0  0  0  0
   22.4127   20.3389   24.7787 H   0  0  0  0  0  0  0  0  0  0  0  0
  1  2  1  0  0  0  0
  1  3  1  0  0  0  0
  1  4  1  0  0  0  0
  4  5  1  0  0  0  0
  4  6  1  0  0  0  0
  4  7  1  0  0  0  0
  7  8  1  0  0  0  0
  7  9  1  0  0  0  0
  7 10  1  0  0  0  0
 10 11  1  0  0  0  0
 10 12  1  0  0  0  0
 10 13  1  0  0  0  0
 13 14  1  0  0  0  0
 13 15  1  0  0  0  0
 15 16  1  0  0  0  0
 15 17  1  0  0  0  0
  1 18  1  0  0  0  0
 15 18  1  0  0  0  0
 18 19  1  0  0  0  0
 18 20  1  0  0  0  0
 13 21  1  0  0  0  0
 21 22  1  0  0  0  0
M  END
> <VConfSearch Rank>
858

> <Conf_Id>
144

> <Delta U+W>
-3.291

> <U+W>
3.132

> <U>
5.411

> <W>
-2.279

> <W(PB)>
-4.300

> <W(SA)>
2.021

> <Valence>
11.909

> <Coulomb>
-8.733

> <VdW>
2.236

> <VdW6>
-8.936

> <VdW12>
11.172

> <Bond>
0.223

> <Angle>
2.457

> <Pdih>
9.228

> <Idih>
0.000

> <Tether>
0.000

$$$$
VeraChem MOL file


 22 22  0  0  0  0  0  0  0  0999 V2000     
   18.7774   18.6530   21.7358 C   0  0  0  0  0  0  0  0  0  0  0  0
   17.8642   18.3064   21.2330 H   0  0  0  0  0  0  0  0  0  0  0  0
   19.5500   17.9048   21.5123 H   0  0  0  0  0  0  0  0  0  0  0  0
   18.4931   18.7148   23.2548 C   0  0  0  0  0  0  0  0  0  0  0  0
   17.9837   19.6583   23.4933 H   0  0  0  0  0  0  0  0  0  0  0  0
   17.7782   17.9222   23.5150 H   0  0  0  0  0  0  0  0  0  0  0  0
   19.7363   18.5519   24.1624 C   0  0  0  0  0  0  0  0  0  0  0  0
   19.9472   17.4814   24.2910 H   0  0  0  0  0  0  0  0  0  0  0  0
   19.4814   18.9278   25.1628 H   0  0  0  0  0  0  0  0  0  0  0  0
   21.0346   19.2444   23.6795 C   0  0  0  0  0  0  0  0  0  0  0  0
   21.7088   19.3330   24.5421 H   0  0  0  0  0  0  0  0  0  0  0  0
   21.5491   18.5881   22.9658 H   0  0  0  0  0  0  0  0  0  0  0  0
   20.8312   20.6358   23.0390 C   0  0  0  0  0  0  0  0  0  0  0  0
   19.9995   21.1530   23.5383 H   0  0  0  0  0  0  0  0  0  0  0  0
   20.5545   20.5544   21.5205 C   0  0  0  0  0  0  0  0  0  0  0  0
   20.6723   21.5567   21.0874 H   0  0  0  0  0  0  0  0  0  0  0  0
   21.3170   19.9258   21.0424 H   0  0  0  0  0  0  0  0  0  0  0  0
   19.1507   20.0299   21.1358 C   0  0  0  0  0  0  0  0  0  0  0  0
   18.3933   20.7713   21.4249 H   0  0  0  0  0  0  0  0  0  0  0  0
   19.0986   19.9605   20.0407 H   0  0  0  0  0  0  0  0  0  0  0  0
   22.0203   21.3917   23.2259 O   0  0  0  0  0  0  0  0  0  0  0  0
   22.7348   20.9004   22.7707 H   0  0  0  0  0  0  0  0  0  0  0  0
  1  2  1  0  0  0  0
  1  3  1  0  0  0  0
  1  4  1  0  0  0  0
  4  5  1  0  0  0  0
  4  6  1  0  0  0  0
  4  7  1  0  0  0  0
  7  8  1  0  0  0  0
  7  9  1  0  0  0  0
  7 10  1  0  0  0  0
 10 11  1  0  0  0  0
 10 12  1  0  0  0  0
 10 13  1  0  0  0  0
 13 14  1  0  0  0  0
 13 15  1  0  0  0  0
 15 16  1  0  0  0  0
 15 17  1  0  0  0  0
  1 18  1  0  0  0  0
 15 18  1  0  0  0  0
 18 19  1  0  0  0  0
 18 20  1  0  0  0  0
 13 21  1  0  0  0  0
 21 22  1  0  0  0  0
M  END
> <VConfSearch Rank>
859

> <Conf_Id>
76

> <Delta U+W>
-3.175

> <U+W>
3.248

> <U>
5.336

> <W>
-2.088

> <W(PB)>
-4.098

> <W(SA)>
2.010

> <Valence>
12.390

> <Coulomb>
-9.270

> <VdW>
2.216

> <VdW6>
-8.967

> <VdW12>
11.183

> <Bond>
0.218

> <Angle>
2.426

> <Pdih>
9.745

> <Idih>
0.000

> <Tether>
0.000

$$$$
VeraChem MOL file


 22 22  0  0  0  0  0  0  0  0999 V2000     
   18.4675   19.6069   23.6628 C   0  0  0  0  0  0  0  0  0  0  0  0
   18.0143   20.4797   24.1524 H   0  0  0  0  0  0  0  0  0  0  0  0
   17.7486   18.7862   23.7917 H   0  0  0  0  0  0  0  0  0  0  0  0
   19.7725   19.2531   24.4154 C   0  0  0  0  0  0  0  0  0  0  0  0
   20.2674   20.1766   24.7452 H   0  0  0  0  0  0  0  0  0  0  0  0
   19.4993   18.7212   25.3370 H   0  0  0  0  0  0  0  0  0  0  0  0
   20.7755   18.3895   23.6156 C   0  0  0  0  0  0  0  0  0  0  0  0
   20.2510   17.6484   22.9970 H   0  0  0  0  0  0  0  0  0  0  0  0
   21.3788   17.8160   24.3321 H   0  0  0  0  0  0  0  0  0  0  0  0
   21.7454   19.2384   22.7550 C   0  0  0  0  0  0  0  0  0  0  0  0
   22.1999   20.0149   23.3835 H   0  0  0  0  0  0  0  0  0  0  0  0
   22.5764   18.5987   22.4299 H   0  0  0  0  0  0  0  0  0  0  0  0
   21.1389   19.9059   21.4998 C   0  0  0  0  0  0  0  0  0  0  0  0
   21.8963   20.6039   21.1147 H   0  0  0  0  0  0  0  0  0  0  0  0
   19.8479   20.7257   21.7479 C   0  0  0  0  0  0  0  0  0  0  0  0
   20.0382   21.5003   22.5020 H   0  0  0  0  0  0  0  0  0  0  0  0
   19.6155   21.2659   20.8211 H   0  0  0  0  0  0  0  0  0  0  0  0
   18.6036   19.8908   22.1479 C   0  0  0  0  0  0  0  0  0  0  0  0
   17.7004   20.4242   21.8224 H   0  0  0  0  0  0  0  0  0  0  0  0
   18.5944   18.9410   21.5972 H   0  0  0  0  0  0  0  0  0  0  0  0
   20.9050   18.9129   20.5062 O   0  0  0  0  0  0  0  0  0  0  0  0
   20.4752   19.3676   19.7533 H   0  0  0  0  0  0  0  0  0  0  0  0
  1  2  1  0  0  0  0
  1  3  1  0  0  0  0
  1  4  1  0  0  0  0
  4  5  1  0  0  0  0
  4  6  1  0  0  0  0
  4  7  1  0  0  0  0
  7  8  1  0  0  0  0
  7  9  1  0  0  0  0
  7 10  1  0  0  0  0
 10 11  1  0  0  0  0
 10 12  1  0  0  0  0
 10 13  1  0  0  0  0
 13 14  1  0  0  0  0
 13 15  1  0  0  0  0
 15 16  1  0  0  0  0
 15 17  1  0  0  0  0
  1 18  1  0  0  0  0
 15 18  1  0  0  0  0
 18 19  1  0  0  0  0
 18 20  1  0  0  0  0
 13 21  1  0  0  0  0
 21 22  1  0  0  0  0
M  END
> <VConfSearch Rank>
860

> <Conf_Id>
95

> <Delta U+W>
-2.289

> <U+W>
4.134

> <U>
6.373

> <W>
-2.240

> <W(PB)>
-4.254

> <W(SA)>
2.015

> <Valence>
12.093

> <Coulomb>
-8.058

> <VdW>
2.339

> <VdW6>
-9.683

> <VdW12>
12.022

> <Bond>
0.268

> <Angle>
3.005

> <Pdih>
8.820

> <Idih>
0.000

> <Tether>
0.000

$$$$
VeraChem MOL file


 22 22  0  0  0  0  0  0  0  0999 V2000     
   18.9514   18.0667   22.8409 C   0  0  0  0  0  0  0  0  0  0  0  0
   18.8039   17.4181   23.7152 H   0  0  0  0  0  0  0  0  0  0  0  0
   18.3042   17.6569   22.0535 H   0  0  0  0  0  0  0  0  0  0  0  0
   20.4268   17.9443   22.3909 C   0  0  0  0  0  0  0  0  0  0  0  0
   21.0708   17.8356   23.2740 H   0  0  0  0  0  0  0  0  0  0  0  0
   20.5342   17.0046   21.8321 H   0  0  0  0  0  0  0  0  0  0  0  0
   20.9442   19.1102   21.5167 C   0  0  0  0  0  0  0  0  0  0  0  0
   20.1640   19.4613   20.8275 H   0  0  0  0  0  0  0  0  0  0  0  0
   21.7582   18.7276   20.8863 H   0  0  0  0  0  0  0  0  0  0  0  0
   21.5094   20.2826   22.3578 C   0  0  0  0  0  0  0  0  0  0  0  0
   22.2215   19.8862   23.0930 H   0  0  0  0  0  0  0  0  0  0  0  0
   22.1014   20.9326   21.7006 H   0  0  0  0  0  0  0  0  0  0  0  0
   20.4693   21.1550   23.0973 C   0  0  0  0  0  0  0  0  0  0  0  0
   21.0316   21.8150   23.7735 H   0  0  0  0  0  0  0  0  0  0  0  0
   19.4538   20.3724   23.9672 C   0  0  0  0  0  0  0  0  0  0  0  0
   19.9865   19.7649   24.7099 H   0  0  0  0  0  0  0  0  0  0  0  0
   18.8803   21.1121   24.5406 H   0  0  0  0  0  0  0  0  0  0  0  0
   18.4505   19.4914   23.1781 C   0  0  0  0  0  0  0  0  0  0  0  0
   17.5281   19.3943   23.7663 H   0  0  0  0  0  0  0  0  0  0  0  0
   18.1518   20.0027   22.2534 H   0  0  0  0  0  0  0  0  0  0  0  0
   19.7800   21.9697   22.1539 O   0  0  0  0  0  0  0  0  0  0  0  0
   20.4643   22.4257   21.6229 H   0  0  0  0  0  0  0  0  0  0  0  0
  1  2  1  0  0  0  0
  1  3  1  0  0  0  0
  1  4  1  0  0  0  0
  4  5  1  0  0  0  0
  4  6  1  0  0  0  0
  4  7  1  0  0  0  0
  7  8  1  0  0  0  0
  7  9  1  0  0  0  0
  7 10  1  0  0  0  0
 10 11  1  0  0  0  0
 10 12  1  0  0  0  0
 10 13  1  0  0  0  0
 13 14  1  0  0  0  0
 13 15  1  0  0  0  0
 15 16  1  0  0  0  0
 15 17  1  0  0  0  0
  1 18  1  0  0  0  0
 15 18  1  0  0  0  0
 18 19  1  0  0  0  0
 18 20  1  0  0  0  0
 13 21  1  0  0  0  0
 21 22  1  0  0  0  0
M  END
> <VConfSearch Rank>
861

> <Conf_Id>
41

> <Delta U+W>
-2.114

> <U+W>
4.310

> <U>
6.598

> <W>
-2.289

> <W(PB)>
-4.294

> <W(SA)>
2.005

> <Valence>
12.082

> <Coulomb>
-7.801

> <VdW>
2.317

> <VdW6>
-9.658

> <VdW12>
11.975

> <Bond>
0.267

> <Angle>
3.051

> <Pdih>
8.764

> <Idih>
0.000

> <Tether>
0.000

$$$$
VeraChem MOL file


 22 22  0  0  0  0  0  0  0  0999 V2000     
   21.5314   18.8581   23.1882 C   0  0  0  0  0  0  0  0  0  0  0  0
   22.3517   18.1860   23.4746 H   0  0  0  0  0  0  0  0  0  0  0  0
   21.9989   19.8109   22.9042 H   0  0  0  0  0  0  0  0  0  0  0  0
   20.6184   19.0433   24.4208 C   0  0  0  0  0  0  0  0  0  0  0  0
   20.1134   18.0951   24.6500 H   0  0  0  0  0  0  0  0  0  0  0  0
   21.2475   19.2678   25.2928 H   0  0  0  0  0  0  0  0  0  0  0  0
   19.5673   20.1662   24.2810 C   0  0  0  0  0  0  0  0  0  0  0  0
   20.0735   21.1406   24.2645 H   0  0  0  0  0  0  0  0  0  0  0  0
   18.9527   20.1696   25.1912 H   0  0  0  0  0  0  0  0  0  0  0  0
   18.6232   20.0374   23.0549 C   0  0  0  0  0  0  0  0  0  0  0  0
   18.1759   19.0357   23.0275 H   0  0  0  0  0  0  0  0  0  0  0  0
   17.7865   20.7315   23.2057 H   0  0  0  0  0  0  0  0  0  0  0  0
   19.2507   20.3713   21.6769 C   0  0  0  0  0  0  0  0  0  0  0  0
   18.4149   20.5463   20.9840 H   0  0  0  0  0  0  0  0  0  0  0  0
   20.1138   19.2527   21.0374 C   0  0  0  0  0  0  0  0  0  0  0  0
   19.4767   18.6875   20.3448 H   0  0  0  0  0  0  0  0  0  0  0  0
   20.8864   19.7130   20.4075 H   0  0  0  0  0  0  0  0  0  0  0  0
   20.7910   18.2324   21.9856 C   0  0  0  0  0  0  0  0  0  0  0  0
   20.0489   17.5058   22.3431 H   0  0  0  0  0  0  0  0  0  0  0  0
   21.5109   17.6508   21.3939 H   0  0  0  0  0  0  0  0  0  0  0  0
   20.0072   21.5767   21.7527 O   0  0  0  0  0  0  0  0  0  0  0  0
   20.3431   21.7568   20.8513 H   0  0  0  0  0  0  0  0  0  0  0  0
  1  2  1  0  0  0  0
  1  3  1  0  0  0  0
  1  4  1  0  0  0  0
  4  5  1  0  0  0  0
  4  6  1  0  0  0  0
  4  7  1  0  0  0  0
  7  8  1  0  0  0  0
  7  9  1  0  0  0  0
  7 10  1  0  0  0  0
 10 11  1  0  0  0  0
 10 12  1  0  0  0  0
 10 13  1  0  0  0  0
 13 14  1  0  0  0  0
 13 15  1  0  0  0  0
 15 16  1  0  0  0  0
 15 17  1  0  0  0  0
  1 18  1  0  0  0  0
 15 18  1  0  0  0  0
 18 19  1  0  0  0  0
 18 20  1  0  0  0  0
 13 21  1  0  0  0  0
 21 22  1  0  0  0  0
M  END
> <VConfSearch Rank>
862

> <Conf_Id>
104

> <Delta U+W>
-1.172

> <U+W>
5.252

> <U>
7.482

> <W>
-2.230

> <W(PB)>
-4.220

> <W(SA)>
1.990

> <Valence>
12.309

> <Coulomb>
-7.084

> <VdW>
2.258

> <VdW6>
-9.770

> <VdW12>
12.028

> <Bond>
0.284

> <Angle>
3.491

> <Pdih>
8.535

> <Idih>
0.000

> <Tether>
0.000

$$$$
VeraChem MOL file


 22 22  0  0  0  0  0  0  0  0999 V2000     
   21.3431   20.2833   23.4341 C   0  0  0  0  0  0  0  0  0  0  0  0
   21.3156   21.1803   22.8007 H   0  0  0  0  0  0  0  0  0  0  0  0
   22.1909   20.4226   24.1187 H   0  0  0  0  0  0  0  0  0  0  0  0
   21.6206   19.0190   22.5891 C   0  0  0  0  0  0  0  0  0  0  0  0
   22.6975   18.9687   22.3771 H   0  0  0  0  0  0  0  0  0  0  0  0
   21.4077   18.1256   23.1907 H   0  0  0  0  0  0  0  0  0  0  0  0
   20.8691   18.9371   21.2363 C   0  0  0  0  0  0  0  0  0  0  0  0
   20.7719   17.8792   20.9558 H   0  0  0  0  0  0  0  0  0  0  0  0
   21.5022   19.3872   20.4594 H   0  0  0  0  0  0  0  0  0  0  0  0
   19.4749   19.6159   21.1546 C   0  0  0  0  0  0  0  0  0  0  0  0
   19.6095   20.6981   21.0285 H   0  0  0  0  0  0  0  0  0  0  0  0
   18.9868   19.2774   20.2314 H   0  0  0  0  0  0  0  0  0  0  0  0
   18.5018   19.3703   22.3304 C   0  0  0  0  0  0  0  0  0  0  0  0
   17.4848   19.5605   21.9584 H   0  0  0  0  0  0  0  0  0  0  0  0
   18.7331   20.3379   23.5130 C   0  0  0  0  0  0  0  0  0  0  0  0
   18.6650   21.3689   23.1422 H   0  0  0  0  0  0  0  0  0  0  0  0
   17.8996   20.2219   24.2181 H   0  0  0  0  0  0  0  0  0  0  0  0
   20.0609   20.1718   24.2929 C   0  0  0  0  0  0  0  0  0  0  0  0
   20.0957   20.9502   25.0672 H   0  0  0  0  0  0  0  0  0  0  0  0
   20.0574   19.2165   24.8350 H   0  0  0  0  0  0  0  0  0  0  0  0
   18.5864   18.0252   22.7751 O   0  0  0  0  0  0  0  0  0  0  0  0
   19.5291   17.9099   23.0081 H   0  0  0  0  0  0  0  0  0  0  0  0
  1  2  1  0  0  0  0
  1  3  1  0  0  0  0
  1  4  1  0  0  0  0
  4  5  1  0  0  0  0
  4  6  1  0  0  0  0
  4  7  1  0  0  0  0
  7  8  1  0  0  0  0
  7  9  1  0  0  0  0
  7 10  1  0  0  0  0
 10 11  1  0  0  0  0
 10 12  1  0  0  0  0
 10 13  1  0  0  0  0
 13 14  1  0  0  0  0
 13 15  1  0  0  0  0
 15 16  1  0  0  0  0
 15 17  1  0  0  0  0
  1 18  1  0  0  0  0
 15 18  1  0  0  0  0
 18 19  1  0  0  0  0
 18 20  1  0  0  0  0
 13 21  1  0  0  0  0
 21 22  1  0  0  0  0
M  END
> <VConfSearch Rank>
863

> <Conf_Id>
99

> <Delta U+W>
-3.852

> <U+W>
2.572

> <U>
3.922

> <W>
-1.350

> <W(PB)>
-3.345

> <W(SA)>
1.995

> <Valence>
12.571

> <Coulomb>
-10.581

> <VdW>
1.932

> <VdW6>
-10.483

> <VdW12>
12.415

> <Bond>
0.268

> <Angle>
3.728

> <Pdih>
8.575

> <Idih>
0.000

> <Tether>
0.000

$$$$
VeraChem MOL file


 22 22  0  0  0  0  0  0  0  0999 V2000     
   20.9631   19.8738   21.2945 C   0  0  0  0  0  0  0  0  0  0  0  0
   21.6499   19.5474   20.5013 H   0  0  0  0  0  0  0  0  0  0  0  0
   20.7241   20.9175   21.0501 H   0  0  0  0  0  0  0  0  0  0  0  0
   21.7286   19.8016   22.6482 C   0  0  0  0  0  0  0  0  0  0  0  0
   22.7467   19.4440   22.4410 H   0  0  0  0  0  0  0  0  0  0  0  0
   21.8616   20.8101   23.0621 H   0  0  0  0  0  0  0  0  0  0  0  0
   21.1133   18.8747   23.7276 C   0  0  0  0  0  0  0  0  0  0  0  0
   21.8400   18.7633   24.5437 H   0  0  0  0  0  0  0  0  0  0  0  0
   20.9960   17.8618   23.3228 H   0  0  0  0  0  0  0  0  0  0  0  0
   19.7704   19.3501   24.3486 C   0  0  0  0  0  0  0  0  0  0  0  0
   19.2587   18.4752   24.7699 H   0  0  0  0  0  0  0  0  0  0  0  0
   19.9952   19.9962   25.2077 H   0  0  0  0  0  0  0  0  0  0  0  0
   18.7730   20.1112   23.4409 C   0  0  0  0  0  0  0  0  0  0  0  0
   17.8178   20.1563   23.9834 H   0  0  0  0  0  0  0  0  0  0  0  0
   18.4772   19.4726   22.0615 C   0  0  0  0  0  0  0  0  0  0  0  0
   17.8124   18.6123   22.2124 H   0  0  0  0  0  0  0  0  0  0  0  0
   17.8885   20.1958   21.4816 H   0  0  0  0  0  0  0  0  0  0  0  0
   19.6800   19.0101   21.1930 C   0  0  0  0  0  0  0  0  0  0  0  0
   19.9192   17.9636   21.4190 H   0  0  0  0  0  0  0  0  0  0  0  0
   19.3524   18.9982   20.1446 H   0  0  0  0  0  0  0  0  0  0  0  0
   19.2163   21.4472   23.2618 O   0  0  0  0  0  0  0  0  0  0  0  0
   20.0616   21.3529   22.7786 H   0  0  0  0  0  0  0  0  0  0  0  0
  1  2  1  0  0  0  0
  1  3  1  0  0  0  0
  1  4  1  0  0  0  0
  4  5  1  0  0  0  0
  4  6  1  0  0  0  0
  4  7  1  0  0  0  0
  7  8  1  0  0  0  0
  7  9  1  0  0  0  0
  7 10  1  0  0  0  0
 10 11  1  0  0  0  0
 10 12  1  0  0  0  0
 10 13  1  0  0  0  0
 13 14  1  0  0  0  0
 13 15  1  0  0  0  0
 15 16  1  0  0  0  0
 15 17  1  0  0  0  0
  1 18  1  0  0  0  0
 15 18  1  0  0  0  0
 18 19  1  0  0  0  0
 18 20  1  0  0  0  0
 13 21  1  0  0  0  0
 21 22  1  0  0  0  0
M  END
> <VConfSearch Rank>
864

> <Conf_Id>
98

> <Delta U+W>
0.930

> <U+W>
7.353

> <U>
8.455

> <W>
-1.102

> <W(PB)>
-3.101

> <W(SA)>
2.000

> <Valence>
15.601

> <Coulomb>
-10.573

> <VdW>
3.427

> <VdW6>
-11.360

> <VdW12>
14.787

> <Bond>
0.471

> <Angle>
5.445

> <Pdih>
9.685

> <Idih>
0.000

> <Tether>
0.000

$$$$
VeraChem MOL file


 22 22  0  0  0  0  0  0  0  0999 V2000     
   21.1968   20.6358   23.2423 C   0  0  0  0  0  0  0  0  0  0  0  0
   21.7048   19.7719   23.6901 H   0  0  0  0  0  0  0  0  0  0  0  0
   21.8462   21.4940   23.4627 H   0  0  0  0  0  0  0  0  0  0  0  0
   19.8305   20.8593   23.9391 C   0  0  0  0  0  0  0  0  0  0  0  0
   20.0273   21.0259   25.0070 H   0  0  0  0  0  0  0  0  0  0  0  0
   19.3781   21.7902   23.5712 H   0  0  0  0  0  0  0  0  0  0  0  0
   18.7981   19.7049   23.8121 C   0  0  0  0  0  0  0  0  0  0  0  0
   18.0316   19.9654   23.0708 H   0  0  0  0  0  0  0  0  0  0  0  0
   18.2554   19.6246   24.7638 H   0  0  0  0  0  0  0  0  0  0  0  0
   19.4023   18.3182   23.4660 C   0  0  0  0  0  0  0  0  0  0  0  0
   20.2110   18.0916   24.1719 H   0  0  0  0  0  0  0  0  0  0  0  0
   18.6389   17.5520   23.6572 H   0  0  0  0  0  0  0  0  0  0  0  0
   19.9313   18.1507   22.0114 C   0  0  0  0  0  0  0  0  0  0  0  0
   20.9189   17.6701   22.0633 H   0  0  0  0  0  0  0  0  0  0  0  0
   20.0716   19.4553   21.1876 C   0  0  0  0  0  0  0  0  0  0  0  0
   20.3322   19.1962   20.1532 H   0  0  0  0  0  0  0  0  0  0  0  0
   19.0980   19.9554   21.1197 H   0  0  0  0  0  0  0  0  0  0  0  0
   21.1320   20.4580   21.7072 C   0  0  0  0  0  0  0  0  0  0  0  0
   22.1236   20.1393   21.3580 H   0  0  0  0  0  0  0  0  0  0  0  0
   20.9470   21.4343   21.2388 H   0  0  0  0  0  0  0  0  0  0  0  0
   19.0421   17.2936   21.3044 O   0  0  0  0  0  0  0  0  0  0  0  0
   19.4275   17.1592   20.4136 H   0  0  0  0  0  0  0  0  0  0  0  0
  1  2  1  0  0  0  0
  1  3  1  0  0  0  0
  1  4  1  0  0  0  0
  4  5  1  0  0  0  0
  4  6  1  0  0  0  0
  4  7  1  0  0  0  0
  7  8  1  0  0  0  0
  7  9  1  0  0  0  0
  7 10  1  0  0  0  0
 10 11  1  0  0  0  0
 10 12  1  0  0  0  0
 10 13  1  0  0  0  0
 13 14  1  0  0  0  0
 13 15  1  0  0  0  0
 15 16  1  0  0  0  0
 15 17  1  0  0  0  0
  1 18  1  0  0  0  0
 15 18  1  0  0  0  0
 18 19  1  0  0  0  0
 18 20  1  0  0  0  0
 13 21  1  0  0  0  0
 21 22  1  0  0  0  0
M  END
> <VConfSearch Rank>
865

> <Conf_Id>
141

> <Delta U+W>
0.000

> <U+W>
6.423

> <U>
8.781

> <W>
-2.358

> <W(PB)>
-4.373

> <W(SA)>
2.015

> <Valence>
13.328

> <Coulomb>
-8.387

> <VdW>
3.840

> <VdW6>
-9.744

> <VdW12>
13.584

> <Bond>
0.436

> <Angle>
3.478

> <Pdih>
9.415

> <Idih>
0.000

> <Tether>
0.000

$$$$
VeraChem MOL file


 22 22  0  0  0  0  0  0  0  0999 V2000     
   18.4662   20.4586   22.4731 C   0  0  0  0  0  0  0  0  0  0  0  0
   18.0268   19.5356   22.0710 H   0  0  0  0  0  0  0  0  0  0  0  0
   17.6486   21.1912   22.5146 H   0  0  0  0  0  0  0  0  0  0  0  0
   19.5495   21.0173   21.5192 C   0  0  0  0  0  0  0  0  0  0  0  0
   19.0588   21.3743   20.6034 H   0  0  0  0  0  0  0  0  0  0  0  0
   20.0133   21.9032   21.9740 H   0  0  0  0  0  0  0  0  0  0  0  0
   20.6532   20.0131   21.1147 C   0  0  0  0  0  0  0  0  0  0  0  0
   21.3905   20.5448   20.4979 H   0  0  0  0  0  0  0  0  0  0  0  0
   20.2220   19.2389   20.4653 H   0  0  0  0  0  0  0  0  0  0  0  0
   21.3916   19.3410   22.2980 C   0  0  0  0  0  0  0  0  0  0  0  0
   22.2833   18.8442   21.8937 H   0  0  0  0  0  0  0  0  0  0  0  0
   21.7572   20.0964   23.0056 H   0  0  0  0  0  0  0  0  0  0  0  0
   20.5206   18.2933   23.0270 C   0  0  0  0  0  0  0  0  0  0  0  0
   19.8555   17.8243   22.2877 H   0  0  0  0  0  0  0  0  0  0  0  0
   19.6498   18.8650   24.1690 C   0  0  0  0  0  0  0  0  0  0  0  0
   18.8640   18.1300   24.3860 H   0  0  0  0  0  0  0  0  0  0  0  0
   20.2531   18.9392   25.0837 H   0  0  0  0  0  0  0  0  0  0  0  0
   18.9865   20.2415   23.9134 C   0  0  0  0  0  0  0  0  0  0  0  0
   18.1487   20.3501   24.6155 H   0  0  0  0  0  0  0  0  0  0  0  0
   19.6921   21.0429   24.1714 H   0  0  0  0  0  0  0  0  0  0  0  0
   21.3702   17.2945   23.5782 O   0  0  0  0  0  0  0  0  0  0  0  0
   21.8574   16.8931   22.8284 H   0  0  0  0  0  0  0  0  0  0  0  0
  1  2  1  0  0  0  0
  1  3  1  0  0  0  0
  1  4  1  0  0  0  0
  4  5  1  0  0  0  0
  4  6  1  0  0  0  0
  4  7  1  0  0  0  0
  7  8  1  0  0  0  0
  7  9  1  0  0  0  0
  7 10  1  0  0  0  0
 10 11  1  0  0  0  0
 10 12  1  0  0  0  0
 10 13  1  0  0  0  0
 13 14  1  0  0  0  0
 13 15  1  0  0  0  0
 15 16  1  0  0  0  0
 15 17  1  0  0  0  0
  1 18  1  0  0  0  0
 15 18  1  0  0  0  0
 18 19  1  0  0  0  0
 18 20  1  0  0  0  0
 13 21  1  0  0  0  0
 21 22  1  0  0  0  0
M  END
> <VConfSearch Rank>
866

> <Conf_Id>
144

> <Delta U+W>
-3.291

> <U+W>
3.132

> <U>
5.411

> <W>
-2.279

> <W(PB)>
-4.300

> <W(SA)>
2.021

> <Valence>
11.909

> <Coulomb>
-8.733

> <VdW>
2.236

> <VdW6>
-8.936

> <VdW12>
11.172

> <Bond>
0.223

> <Angle>
2.457

> <Pdih>
9.228

> <Idih>
0.000

> <Tether>
0.000

$$$$
VeraChem MOL file


 22 22  0  0  0  0  0  0  0  0999 V2000     
   20.8248   20.1812   24.0044 C   0  0  0  0  0  0  0  0  0  0  0  0
   21.1718   20.4437   25.0131 H   0  0  0  0  0  0  0  0  0  0  0  0
   21.5537   20.6190   23.3088 H   0  0  0  0  0  0  0  0  0  0  0  0
   19.4251   20.8072   23.8020 C   0  0  0  0  0  0  0  0  0  0  0  0
   18.6643   20.1547   24.2515 H   0  0  0  0  0  0  0  0  0  0  0  0
   19.3724   21.7493   24.3648 H   0  0  0  0  0  0  0  0  0  0  0  0
   19.0473   21.1089   22.3315 C   0  0  0  0  0  0  0  0  0  0  0  0
   19.4736   22.0800   22.0450 H   0  0  0  0  0  0  0  0  0  0  0  0
   17.9572   21.2340   22.2769 H   0  0  0  0  0  0  0  0  0  0  0  0
   19.4875   20.0602   21.2805 C   0  0  0  0  0  0  0  0  0  0  0  0
   18.8867   20.2197   20.3749 H   0  0  0  0  0  0  0  0  0  0  0  0
   20.5266   20.2583   20.9870 H   0  0  0  0  0  0  0  0  0  0  0  0
   19.3563   18.5888   21.7337 C   0  0  0  0  0  0  0  0  0  0  0  0
   18.4803   18.4822   22.3891 H   0  0  0  0  0  0  0  0  0  0  0  0
   20.6180   18.0801   22.4674 C   0  0  0  0  0  0  0  0  0  0  0  0
   20.5684   16.9850   22.5342 H   0  0  0  0  0  0  0  0  0  0  0  0
   21.5080   18.3072   21.8662 H   0  0  0  0  0  0  0  0  0  0  0  0
   20.8160   18.6374   23.8971 C   0  0  0  0  0  0  0  0  0  0  0  0
   20.0382   18.2302   24.5574 H   0  0  0  0  0  0  0  0  0  0  0  0
   21.7692   18.2539   24.2858 H   0  0  0  0  0  0  0  0  0  0  0  0
   19.1673   17.7810   20.5796 O   0  0  0  0  0  0  0  0  0  0  0  0
   19.9635   17.9038   20.0226 H   0  0  0  0  0  0  0  0  0  0  0  0
  1  2  1  0  0  0  0
  1  3  1  0  0  0  0
  1  4  1  0  0  0  0
  4  5  1  0  0  0  0
  4  6  1  0  0  0  0
  4  7  1  0  0  0  0
  7  8  1  0  0  0  0
  7  9  1  0  0  0  0
  7 10  1  0  0  0  0
 10 11  1  0  0  0  0
 10 12  1  0  0  0  0
 10 13  1  0  0  0  0
 13 14  1  0  0  0  0
 13 15  1  0  0  0  0
 15 16  1  0  0  0  0
 15 17  1  0  0  0  0
  1 18  1  0  0  0  0
 15 18  1  0  0  0  0
 18 19  1  0  0  0  0
 18 20  1  0  0  0  0
 13 21  1  0  0  0  0
 21 22  1  0  0  0  0
M  END
> <VConfSearch Rank>
867

> <Conf_Id>
76

> <Delta U+W>
-3.175

> <U+W>
3.248

> <U>
5.336

> <W>
-2.088

> <W(PB)>
-4.098

> <W(SA)>
2.010

> <Valence>
12.390

> <Coulomb>
-9.270

> <VdW>
2.216

> <VdW6>
-8.967

> <VdW12>
11.183

> <Bond>
0.218

> <Angle>
2.426

> <Pdih>
9.745

> <Idih>
0.000

> <Tether>
0.000

$$$$
VeraChem MOL file


 22 22  0  0  0  0  0  0  0  0999 V2000     
   19.3033   21.1445   22.0448 C   0  0  0  0  0  0  0  0  0  0  0  0
   19.3099   21.5136   21.0102 H   0  0  0  0  0  0  0  0  0  0  0  0
   18.6853   21.8548   22.6108 H   0  0  0  0  0  0  0  0  0  0  0  0
   20.7518   21.1973   22.5868 C   0  0  0  0  0  0  0  0  0  0  0  0
   21.4540   20.9418   21.7817 H   0  0  0  0  0  0  0  0  0  0  0  0
   20.9768   22.2391   22.8529 H   0  0  0  0  0  0  0  0  0  0  0  0
   21.0249   20.2955   23.8131 C   0  0  0  0  0  0  0  0  0  0  0  0
   20.1595   20.2783   24.4895 H   0  0  0  0  0  0  0  0  0  0  0  0
   21.8504   20.7394   24.3857 H   0  0  0  0  0  0  0  0  0  0  0  0
   21.4446   18.8567   23.4183 C   0  0  0  0  0  0  0  0  0  0  0  0
   22.2623   18.9070   22.6880 H   0  0  0  0  0  0  0  0  0  0  0  0
   21.8682   18.3607   24.3014 H   0  0  0  0  0  0  0  0  0  0  0  0
   20.3275   17.9503   22.8529 C   0  0  0  0  0  0  0  0  0  0  0  0
   20.8194   17.0489   22.4595 H   0  0  0  0  0  0  0  0  0  0  0  0
   19.5050   18.5639   21.6921 C   0  0  0  0  0  0  0  0  0  0  0  0
   20.1756   18.8504   20.8717 H   0  0  0  0  0  0  0  0  0  0  0  0
   18.8628   17.7716   21.2864 H   0  0  0  0  0  0  0  0  0  0  0  0
   18.6049   19.7643   22.0849 C   0  0  0  0  0  0  0  0  0  0  0  0
   17.7463   19.8011   21.4009 H   0  0  0  0  0  0  0  0  0  0  0  0
   18.1752   19.6025   23.0822 H   0  0  0  0  0  0  0  0  0  0  0  0
   19.4611   17.5562   23.9121 O   0  0  0  0  0  0  0  0  0  0  0  0
   18.7435   17.0299   23.5043 H   0  0  0  0  0  0  0  0  0  0  0  0
  1  2  1  0  0  0  0
  1  3  1  0  0  0  0
  1  4  1  0  0  0  0
  4  5  1  0  0  0  0
  4  6  1  0  0  0  0
  4  7  1  0  0  0  0
  7  8  1  0  0  0  0
  7  9  1  0  0  0  0
  7 10  1  0  0  0  0
 10 11  1  0  0  0  0
 10 12  1  0  0  0  0
 10 13  1  0  0  0  0
 13 14  1  0  0  0  0
 13 15  1  0  0  0  0
 15 16  1  0  0  0  0
 15 17  1  0  0  0  0
  1 18  1  0  0  0  0
 15 18  1  0  0  0  0
 18 19  1  0  0  0  0
 18 20  1  0  0  0  0
 13 21  1  0  0  0  0
 21 22  1  0  0  0  0
M  END
> <VConfSearch Rank>
868

> <Conf_Id>
95

> <Delta U+W>
-2.289

> <U+W>
4.134

> <U>
6.373

> <W>
-2.240

> <W(PB)>
-4.254

> <W(SA)>
2.015

> <Valence>
12.093

> <Coulomb>
-8.058

> <VdW>
2.339

> <VdW6>
-9.683

> <VdW12>
12.022

> <Bond>
0.268

> <Angle>
3.005

> <Pdih>
8.820

> <Idih>
0.000

> <Tether>
0.000

$$$$
VeraChem MOL file


 22 22  0  0  0  0  0  0  0  0999 V2000     
   18.6374   20.9182   22.6104 C   0  0  0  0  0  0  0  0  0  0  0  0
   17.9852   21.2686   23.4220 H   0  0  0  0  0  0  0  0  0  0  0  0
   18.3431   21.4938   21.7221 H   0  0  0  0  0  0  0  0  0  0  0  0
   18.3363   19.4213   22.3597 C   0  0  0  0  0  0  0  0  0  0  0  0
   18.1141   18.9277   23.3155 H   0  0  0  0  0  0  0  0  0  0  0  0
   17.4097   19.3552   21.7732 H   0  0  0  0  0  0  0  0  0  0  0  0
   19.4521   18.6424   21.6251 C   0  0  0  0  0  0  0  0  0  0  0  0
   19.9259   19.2665   20.8552 H   0  0  0  0  0  0  0  0  0  0  0  0
   18.9866   17.8021   21.0926 H   0  0  0  0  0  0  0  0  0  0  0  0
   20.5109   18.0587   22.5945 C   0  0  0  0  0  0  0  0  0  0  0  0
   19.9997   17.5136   23.3985 H   0  0  0  0  0  0  0  0  0  0  0  0
   21.0986   17.3024   22.0582 H   0  0  0  0  0  0  0  0  0  0  0  0
   21.4879   19.0747   23.2294 C   0  0  0  0  0  0  0  0  0  0  0  0
   22.0450   18.5351   24.0088 H   0  0  0  0  0  0  0  0  0  0  0  0
   20.8178   20.2937   23.9115 C   0  0  0  0  0  0  0  0  0  0  0  0
   20.1208   19.9524   24.6876 H   0  0  0  0  0  0  0  0  0  0  0  0
   21.6072   20.8447   24.4388 H   0  0  0  0  0  0  0  0  0  0  0  0
   20.1037   21.2781   22.9490 C   0  0  0  0  0  0  0  0  0  0  0  0
   20.1097   22.2793   23.4004 H   0  0  0  0  0  0  0  0  0  0  0  0
   20.6805   21.3759   22.0198 H   0  0  0  0  0  0  0  0  0  0  0  0
   22.4175   19.5151   22.2441 O   0  0  0  0  0  0  0  0  0  0  0  0
   22.7965   18.7105   21.8352 H   0  0  0  0  0  0  0  0  0  0  0  0
  1  2  1  0  0  0  0
  1  3  1  0  0  0  0
  1  4  1  0  0  0  0
  4  5  1  0  0  0  0
  4  6  1  0  0  0  0
  4  7  1  0  0  0  0
  7  8  1  0  0  0  0
  7  9  1  0  0  0  0
  7 10  1  0  0  0  0
 10 11  1  0  0  0  0
 10 12  1  0  0  0  0
 10 13  1  0  0  0  0
 13 14  1  0  0  0  0
 13 15  1  0  0  0  0
 15 16  1  0  0  0  0
 15 17  1  0  0  0  0
  1 18  1  0  0  0  0
 15 18  1  0  0  0  0
 18 19  1  0  0  0  0
 18 20  1  0  0  0  0
 13 21  1  0  0  0  0
 21 22  1  0  0  0  0
M  END
> <VConfSearch Rank>
869

> <Conf_Id>
41

> <Delta U+W>
-2.114

> <U+W>
4.310

> <U>
6.598

> <W>
-2.289

> <W(PB)>
-4.294

> <W(SA)>
2.005

> <Valence>
12.082

> <Coulomb>
-7.801

> <VdW>
2.317

> <VdW6>
-9.658

> <VdW12>
11.975

> <Bond>
0.267

> <Angle>
3.051

> <Pdih>
8.764

> <Idih>
0.000

> <Tether>
0.000

$$$$
VeraChem MOL file


 22 22  0  0  0  0  0  0  0  0999 V2000     
   21.1407   20.6078   23.4354 C   0  0  0  0  0  0  0  0  0  0  0  0
   22.0148   21.1822   23.7709 H   0  0  0  0  0  0  0  0  0  0  0  0
   20.2619   21.2323   23.6474 H   0  0  0  0  0  0  0  0  0  0  0  0
   21.0912   19.2986   24.2545 C   0  0  0  0  0  0  0  0  0  0  0  0
   21.9441   18.6623   23.9822 H   0  0  0  0  0  0  0  0  0  0  0  0
   21.2256   19.5441   25.3166 H   0  0  0  0  0  0  0  0  0  0  0  0
   19.7807   18.4950   24.1060 C   0  0  0  0  0  0  0  0  0  0  0  0
   18.9568   19.0498   24.5743 H   0  0  0  0  0  0  0  0  0  0  0  0
   19.8824   17.5709   24.6907 H   0  0  0  0  0  0  0  0  0  0  0  0
   19.4028   18.1122   22.6494 C   0  0  0  0  0  0  0  0  0  0  0  0
   20.2534   17.6262   22.1549 H   0  0  0  0  0  0  0  0  0  0  0  0
   18.6147   17.3500   22.7002 H   0  0  0  0  0  0  0  0  0  0  0  0
   18.8666   19.2649   21.7618 C   0  0  0  0  0  0  0  0  0  0  0  0
   18.3574   18.7947   20.9080 H   0  0  0  0  0  0  0  0  0  0  0  0
   19.9387   20.2088   21.1578 C   0  0  0  0  0  0  0  0  0  0  0  0
   20.1703   19.8541   20.1451 H   0  0  0  0  0  0  0  0  0  0  0  0
   19.5007   21.2062   21.0205 H   0  0  0  0  0  0  0  0  0  0  0  0
   21.2801   20.3573   21.9175 C   0  0  0  0  0  0  0  0  0  0  0  0
   21.9077   19.4730   21.7428 H   0  0  0  0  0  0  0  0  0  0  0  0
   21.8271   21.1991   21.4715 H   0  0  0  0  0  0  0  0  0  0  0  0
   17.8980   20.0317   22.4722 O   0  0  0  0  0  0  0  0  0  0  0  0
   17.5684   20.7143   21.8532 H   0  0  0  0  0  0  0  0  0  0  0  0
  1  2  1  0  0  0  0
  1  3  1  0  0  0  0
  1  4  1  0  0  0  0
  4  5  1  0  0  0  0
  4  6  1  0  0  0  0
  4  7  1  0  0  0  0
  7  8  1  0  0  0  0
  7  9  1  0  0  0  0
  7 10  1  0  0  0  0
 10 11  1  0  0  0  0
 10 12  1  0  0  0  0
 10 13  1  0  0  0  0
 13 14  1  0  0  0  0
 13 15  1  0  0  0  0
 15 16  1  0  0  0  0
 15 17  1  0  0  0  0
  1 18  1  0  0  0  0
 15 18  1  0  0  0  0
 18 19  1  0  0  0  0
 18 20  1  0  0  0  0
 13 21  1  0  0  0  0
 21 22  1  0  0  0  0
M  END
> <VConfSearch Rank>
870

> <Conf_Id>
104

> <Delta U+W>
-1.172

> <U+W>
5.252

> <U>
7.482

> <W>
-2.230

> <W(PB)>
-4.220

> <W(SA)>
1.990

> <Valence>
12.309

> <Coulomb>
-7.084

> <VdW>
2.258

> <VdW6>
-9.770

> <VdW12>
12.028

> <Bond>
0.284

> <Angle>
3.491

> <Pdih>
8.535

> <Idih>
0.000

> <Tether>
0.000

$$$$
VeraChem MOL file


 22 22  0  0  0  0  0  0  0  0999 V2000     
   19.1595   18.5730   21.7422 C   0  0  0  0  0  0  0  0  0  0  0  0
   19.7023   18.8273   20.8218 H   0  0  0  0  0  0  0  0  0  0  0  0
   18.3818   17.8559   21.4460 H   0  0  0  0  0  0  0  0  0  0  0  0
   18.4559   19.8176   22.3299 C   0  0  0  0  0  0  0  0  0  0  0  0
   17.5288   19.9943   21.7672 H   0  0  0  0  0  0  0  0  0  0  0  0
   18.1286   19.6001   23.3551 H   0  0  0  0  0  0  0  0  0  0  0  0
   19.2803   21.1296   22.3049 C   0  0  0  0  0  0  0  0  0  0  0  0
   18.9118   21.7872   23.1043 H   0  0  0  0  0  0  0  0  0  0  0  0
   19.0613   21.6597   21.3678 H   0  0  0  0  0  0  0  0  0  0  0  0
   20.8236   21.0026   22.4205 C   0  0  0  0  0  0  0  0  0  0  0  0
   21.2338   20.7115   21.4448 H   0  0  0  0  0  0  0  0  0  0  0  0
   21.2320   22.0022   22.6176 H   0  0  0  0  0  0  0  0  0  0  0  0
   21.3723   20.0385   23.4973 C   0  0  0  0  0  0  0  0  0  0  0  0
   22.4033   20.3491   23.7195 H   0  0  0  0  0  0  0  0  0  0  0  0
   21.4421   18.5731   23.0115 C   0  0  0  0  0  0  0  0  0  0  0  0
   22.0424   18.5354   22.0932 H   0  0  0  0  0  0  0  0  0  0  0  0
   22.0032   17.9924   23.7553 H   0  0  0  0  0  0  0  0  0  0  0  0
   20.0890   17.8642   22.7559 C   0  0  0  0  0  0  0  0  0  0  0  0
   20.3041   16.8549   22.3793 H   0  0  0  0  0  0  0  0  0  0  0  0
   19.5599   17.7174   23.7072 H   0  0  0  0  0  0  0  0  0  0  0  0
   20.5988   20.1242   24.6841 O   0  0  0  0  0  0  0  0  0  0  0  0
   19.6890   19.9172   24.3913 H   0  0  0  0  0  0  0  0  0  0  0  0
  1  2  1  0  0  0  0
  1  3  1  0  0  0  0
  1  4  1  0  0  0  0
  4  5  1  0  0  0  0
  4  6  1  0  0  0  0
  4  7  1  0  0  0  0
  7  8  1  0  0  0  0
  7  9  1  0  0  0  0
  7 10  1  0  0  0  0
 10 11  1  0  0  0  0
 10 12  1  0  0  0  0
 10 13  1  0  0  0  0
 13 14  1  0  0  0  0
 13 15  1  0  0  0  0
 15 16  1  0  0  0  0
 15 17  1  0  0  0  0
  1 18  1  0  0  0  0
 15 18  1  0  0  0  0
 18 19  1  0  0  0  0
 18 20  1  0  0  0  0
 13 21  1  0  0  0  0
 21 22  1  0  0  0  0
M  END
> <VConfSearch Rank>
871

> <Conf_Id>
99

> <Delta U+W>
-3.852

> <U+W>
2.572

> <U>
3.922

> <W>
-1.350

> <W(PB)>
-3.345

> <W(SA)>
1.995

> <Valence>
12.571

> <Coulomb>
-10.581

> <VdW>
1.932

> <VdW6>
-10.483

> <VdW12>
12.415

> <Bond>
0.268

> <Angle>
3.728

> <Pdih>
8.575

> <Idih>
0.000

> <Tether>
0.000

$$$$
VeraChem MOL file


 22 22  0  0  0  0  0  0  0  0999 V2000     
   21.2040   20.7996   22.4589 C   0  0  0  0  0  0  0  0  0  0  0  0
   21.8078   21.6396   22.8293 H   0  0  0  0  0  0  0  0  0  0  0  0
   21.5019   20.6783   21.4088 H   0  0  0  0  0  0  0  0  0  0  0  0
   19.7057   21.2132   22.5471 C   0  0  0  0  0  0  0  0  0  0  0  0
   19.6609   22.2322   22.9556 H   0  0  0  0  0  0  0  0  0  0  0  0
   19.2751   21.2928   21.5399 H   0  0  0  0  0  0  0  0  0  0  0  0
   18.8031   20.3115   23.4275 C   0  0  0  0  0  0  0  0  0  0  0  0
   17.8358   20.8147   23.5611 H   0  0  0  0  0  0  0  0  0  0  0  0
   19.2211   20.2447   24.4396 H   0  0  0  0  0  0  0  0  0  0  0  0
   18.5247   18.8842   22.8797 C   0  0  0  0  0  0  0  0  0  0  0  0
   18.2362   18.2435   23.7230 H   0  0  0  0  0  0  0  0  0  0  0  0
   17.6388   18.9279   22.2322 H   0  0  0  0  0  0  0  0  0  0  0  0
   19.6480   18.1728   22.0858 C   0  0  0  0  0  0  0  0  0  0  0  0
   19.3513   17.1188   21.9874 H   0  0  0  0  0  0  0  0  0  0  0  0
   21.0561   18.1854   22.7303 C   0  0  0  0  0  0  0  0  0  0  0  0
   21.0668   17.4620   23.5557 H   0  0  0  0  0  0  0  0  0  0  0  0
   21.7628   17.7898   21.9887 H   0  0  0  0  0  0  0  0  0  0  0  0
   21.6084   19.5371   23.2621 C   0  0  0  0  0  0  0  0  0  0  0  0
   21.3283   19.6628   24.3154 H   0  0  0  0  0  0  0  0  0  0  0  0
   22.7048   19.4706   23.2742 H   0  0  0  0  0  0  0  0  0  0  0  0
   19.7195   18.7118   20.7752 O   0  0  0  0  0  0  0  0  0  0  0  0
   19.9848   19.6427   20.9166 H   0  0  0  0  0  0  0  0  0  0  0  0
  1  2  1  0  0  0  0
  1  3  1  0  0  0  0
  1  4  1  0  0  0  0
  4  5  1  0  0  0  0
  4  6  1  0  0  0  0
  4  7  1  0  0  0  0
  7  8  1  0  0  0  0
  7  9  1  0  0  0  0
  7 10  1  0  0  0  0
 10 11  1  0  0  0  0
 10 12  1  0  0  0  0
 10 13  1  0  0  0  0
 13 14  1  0  0  0  0
 13 15  1  0  0  0  0
 15 16  1  0  0  0  0
 15 17  1  0  0  0  0
  1 18  1  0  0  0  0
 15 18  1  0  0  0  0
 18 19  1  0  0  0  0
 18 20  1  0  0  0  0
 13 21  1  0  0  0  0
 21 22  1  0  0  0  0
M  END
> <VConfSearch Rank>
872

> <Conf_Id>
98

> <Delta U+W>
0.930

> <U+W>
7.353

> <U>
8.455

> <W>
-1.102

> <W(PB)>
-3.101

> <W(SA)>
2.000

> <Valence>
15.601

> <Coulomb>
-10.573

> <VdW>
3.427

> <VdW6>
-11.360

> <VdW12>
14.787

> <Bond>
0.471

> <Angle>
5.445

> <Pdih>
9.685

> <Idih>
0.000

> <Tether>
0.000

$$$$
VeraChem MOL file


 22 22  0  0  0  0  0  0  0  0999 V2000     
   21.0506   19.4266   24.0232 C   0  0  0  0  0  0  0  0  0  0  0  0
   21.8161   19.0239   23.3475 H   0  0  0  0  0  0  0  0  0  0  0  0
   21.5434   19.4977   25.0024 H   0  0  0  0  0  0  0  0  0  0  0  0
   19.8722   18.4261   24.1355 C   0  0  0  0  0  0  0  0  0  0  0  0
   20.2778   17.4790   24.5169 H   0  0  0  0  0  0  0  0  0  0  0  0
   19.1646   18.7757   24.8995 H   0  0  0  0  0  0  0  0  0  0  0  0
   19.0984   18.1263   22.8218 C   0  0  0  0  0  0  0  0  0  0  0  0
   18.1414   18.6641   22.8176 H   0  0  0  0  0  0  0  0  0  0  0  0
   18.8248   17.0625   22.8206 H   0  0  0  0  0  0  0  0  0  0  0  0
   19.8745   18.4414   21.5156 C   0  0  0  0  0  0  0  0  0  0  0  0
   20.8561   17.9530   21.5535 H   0  0  0  0  0  0  0  0  0  0  0  0
   19.3518   17.9585   20.6789 H   0  0  0  0  0  0  0  0  0  0  0  0
   20.0667   19.9508   21.1859 C   0  0  0  0  0  0  0  0  0  0  0  0
   21.1154   20.1025   20.8924 H   0  0  0  0  0  0  0  0  0  0  0  0
   19.7374   20.9411   22.3310 C   0  0  0  0  0  0  0  0  0  0  0  0
   19.7930   21.9659   21.9415 H   0  0  0  0  0  0  0  0  0  0  0  0
   18.6942   20.8108   22.6430 H   0  0  0  0  0  0  0  0  0  0  0  0
   20.6619   20.8538   23.5709 C   0  0  0  0  0  0  0  0  0  0  0  0
   21.5862   21.4105   23.3650 H   0  0  0  0  0  0  0  0  0  0  0  0
   20.1751   21.3763   24.4056 H   0  0  0  0  0  0  0  0  0  0  0  0
   19.2305   20.2812   20.0828 O   0  0  0  0  0  0  0  0  0  0  0  0
   19.4131   21.2178   19.8603 H   0  0  0  0  0  0  0  0  0  0  0  0
  1  2  1  0  0  0  0
  1  3  1  0  0  0  0
  1  4  1  0  0  0  0
  4  5  1  0  0  0  0
  4  6  1  0  0  0  0
  4  7  1  0  0  0  0
  7  8  1  0  0  0  0
  7  9  1  0  0  0  0
  7 10  1  0  0  0  0
 10 11  1  0  0  0  0
 10 12  1  0  0  0  0
 10 13  1  0  0  0  0
 13 14  1  0  0  0  0
 13 15  1  0  0  0  0
 15 16  1  0  0  0  0
 15 17  1  0  0  0  0
  1 18  1  0  0  0  0
 15 18  1  0  0  0  0
 18 19  1  0  0  0  0
 18 20  1  0  0  0  0
 13 21  1  0  0  0  0
 21 22  1  0  0  0  0
M  END
> <VConfSearch Rank>
873

> <Conf_Id>
141

> <Delta U+W>
0.000

> <U+W>
6.423

> <U>
8.781

> <W>
-2.358

> <W(PB)>
-4.373

> <W(SA)>
2.015

> <Valence>
13.328

> <Coulomb>
-8.387

> <VdW>
3.840

> <VdW6>
-9.744

> <VdW12>
13.584

> <Bond>
0.436

> <Angle>
3.478

> <Pdih>
9.415

> <Idih>
0.000

> <Tether>
0.000

$$$$
VeraChem MOL file


 22 22  0  0  0  0  0  0  0  0999 V2000     
   20.9687   18.8620   23.8955 C   0  0  0  0  0  0  0  0  0  0  0  0
   21.4803   18.2903   23.1094 H   0  0  0  0  0  0  0  0  0  0  0  0
   21.4679   18.5969   24.8375 H   0  0  0  0  0  0  0  0  0  0  0  0
   19.4855   18.4355   24.0139 C   0  0  0  0  0  0  0  0  0  0  0  0
   19.4465   17.4114   24.4096 H   0  0  0  0  0  0  0  0  0  0  0  0
   18.9845   19.0640   24.7628 H   0  0  0  0  0  0  0  0  0  0  0  0
   18.6812   18.4733   22.6941 C   0  0  0  0  0  0  0  0  0  0  0  0
   17.6374   18.2174   22.9217 H   0  0  0  0  0  0  0  0  0  0  0  0
   19.0440   17.6828   22.0229 H   0  0  0  0  0  0  0  0  0  0  0  0
   18.7063   19.8317   21.9516 C   0  0  0  0  0  0  0  0  0  0  0  0
   17.9292   19.8008   21.1766 H   0  0  0  0  0  0  0  0  0  0  0  0
   18.4289   20.6490   22.6299 H   0  0  0  0  0  0  0  0  0  0  0  0
   20.0694   20.1215   21.2839 C   0  0  0  0  0  0  0  0  0  0  0  0
   20.5059   19.1647   20.9633 H   0  0  0  0  0  0  0  0  0  0  0  0
   21.0908   20.8395   22.1952 C   0  0  0  0  0  0  0  0  0  0  0  0
   22.0849   20.7033   21.7500 H   0  0  0  0  0  0  0  0  0  0  0  0
   20.8981   21.9205   22.1759 H   0  0  0  0  0  0  0  0  0  0  0  0
   21.1417   20.3830   23.6748 C   0  0  0  0  0  0  0  0  0  0  0  0
   22.1076   20.6967   24.0937 H   0  0  0  0  0  0  0  0  0  0  0  0
   20.3808   20.9248   24.2528 H   0  0  0  0  0  0  0  0  0  0  0  0
   19.8543   20.9347   20.1369 O   0  0  0  0  0  0  0  0  0  0  0  0
   19.2651   20.4289   19.5388 H   0  0  0  0  0  0  0  0  0  0  0  0
  1  2  1  0  0  0  0
  1  3  1  0  0  0  0
  1  4  1  0  0  0  0
  4  5  1  0  0  0  0
  4  6  1  0  0  0  0
  4  7  1  0  0  0  0
  7  8  1  0  0  0  0
  7  9  1  0  0  0  0
  7 10  1  0  0  0  0
 10 11  1  0  0  0  0
 10 12  1  0  0  0  0
 10 13  1  0  0  0  0
 13 14  1  0  0  0  0
 13 15  1  0  0  0  0
 15 16  1  0  0  0  0
 15 17  1  0  0  0  0
  1 18  1  0  0  0  0
 15 18  1  0  0  0  0
 18 19  1  0  0  0  0
 18 20  1  0  0  0  0
 13 21  1  0  0  0  0
 21 22  1  0  0  0  0
M  END
> <VConfSearch Rank>
874

> <Conf_Id>
144

> <Delta U+W>
-3.291

> <U+W>
3.132

> <U>
5.411

> <W>
-2.279

> <W(PB)>
-4.300

> <W(SA)>
2.021

> <Valence>
11.909

> <Coulomb>
-8.733

> <VdW>
2.236

> <VdW6>
-8.936

> <VdW12>
11.172

> <Bond>
0.223

> <Angle>
2.457

> <Pdih>
9.228

> <Idih>
0.000

> <Tether>
0.000

$$$$
VeraChem MOL file


 22 22  0  0  0  0  0  0  0  0999 V2000     
   18.6368   20.6761   22.8626 C   0  0  0  0  0  0  0  0  0  0  0  0
   17.7371   21.2009   23.2121 H   0  0  0  0  0  0  0  0  0  0  0  0
   19.0420   21.2819   22.0408 H   0  0  0  0  0  0  0  0  0  0  0  0
   18.2093   19.2780   22.3580 C   0  0  0  0  0  0  0  0  0  0  0  0
   18.1208   18.5925   23.2118 H   0  0  0  0  0  0  0  0  0  0  0  0
   17.1989   19.3475   21.9323 H   0  0  0  0  0  0  0  0  0  0  0  0
   19.1363   18.6554   21.2860 C   0  0  0  0  0  0  0  0  0  0  0  0
   18.8555   19.0480   20.2991 H   0  0  0  0  0  0  0  0  0  0  0  0
   18.9360   17.5760   21.2455 H   0  0  0  0  0  0  0  0  0  0  0  0
   20.6564   18.8791   21.4790 C   0  0  0  0  0  0  0  0  0  0  0  0
   21.1855   18.1327   20.8712 H   0  0  0  0  0  0  0  0  0  0  0  0
   20.9333   19.8549   21.0595 H   0  0  0  0  0  0  0  0  0  0  0  0
   21.1468   18.7942   22.9419 C   0  0  0  0  0  0  0  0  0  0  0  0
   20.5548   18.0445   23.4858 H   0  0  0  0  0  0  0  0  0  0  0  0
   21.0629   20.1525   23.6747 C   0  0  0  0  0  0  0  0  0  0  0  0
   21.6494   20.0891   24.6010 H   0  0  0  0  0  0  0  0  0  0  0  0
   21.5430   20.9284   23.0642 H   0  0  0  0  0  0  0  0  0  0  0  0
   19.6327   20.6116   24.0454 C   0  0  0  0  0  0  0  0  0  0  0  0
   19.2296   19.9522   24.8262 H   0  0  0  0  0  0  0  0  0  0  0  0
   19.6999   21.6088   24.5014 H   0  0  0  0  0  0  0  0  0  0  0  0
   22.5083   18.3863   22.9337 O   0  0  0  0  0  0  0  0  0  0  0  0
   23.0005   19.0751   22.4413 H   0  0  0  0  0  0  0  0  0  0  0  0
  1  2  1  0  0  0  0
  1  3  1  0  0  0  0
  1  4  1  0  0  0  0
  4  5  1  0  0  0  0
  4  6  1  0  0  0  0
  4  7  1  0  0  0  0
  7  8  1  0  0  0  0
  7  9  1  0  0  0  0
  7 10  1  0  0  0  0
 10 11  1  0  0  0  0
 10 12  1  0  0  0  0
 10 13  1  0  0  0  0
 13 14  1  0  0  0  0
 13 15  1  0  0  0  0
 15 16  1  0  0  0  0
 15 17  1  0  0  0  0
  1 18  1  0  0  0  0
 15 18  1  0  0  0  0
 18 19  1  0  0  0  0
 18 20  1  0  0  0  0
 13 21  1  0  0  0  0
 21 22  1  0  0  0  0
M  END
> <VConfSearch Rank>
875

> <Conf_Id>
76

> <Delta U+W>
-3.175

> <U+W>
3.248

> <U>
5.336

> <W>
-2.088

> <W(PB)>
-4.098

> <W(SA)>
2.010

> <Valence>
12.390

> <Coulomb>
-9.270

> <VdW>
2.216

> <VdW6>
-8.967

> <VdW12>
11.183

> <Bond>
0.218

> <Angle>
2.426

> <Pdih>
9.745

> <Idih>
0.000

> <Tether>
0.000

$$$$
VeraChem MOL file


 22 22  0  0  0  0  0  0  0  0999 V2000     
   18.8174   18.1624   22.6181 C   0  0  0  0  0  0  0  0  0  0  0  0
   17.7242   18.2464   22.6870 H   0  0  0  0  0  0  0  0  0  0  0  0
   19.0228   17.1021   22.4173 H   0  0  0  0  0  0  0  0  0  0  0  0
   19.4194   18.5382   23.9933 C   0  0  0  0  0  0  0  0  0  0  0  0
   18.8300   19.3492   24.4422 H   0  0  0  0  0  0  0  0  0  0  0  0
   19.2943   17.6780   24.6649 H   0  0  0  0  0  0  0  0  0  0  0  0
   20.9121   18.9413   23.9660 C   0  0  0  0  0  0  0  0  0  0  0  0
   21.4710   18.3327   23.2420 H   0  0  0  0  0  0  0  0  0  0  0  0
   21.3441   18.7167   24.9505 H   0  0  0  0  0  0  0  0  0  0  0  0
   21.1207   20.4526   23.6929 C   0  0  0  0  0  0  0  0  0  0  0  0
   20.4957   21.0335   24.3832 H   0  0  0  0  0  0  0  0  0  0  0  0
   22.1573   20.7139   23.9429 H   0  0  0  0  0  0  0  0  0  0  0  0
   20.8441   20.9303   22.2492 C   0  0  0  0  0  0  0  0  0  0  0  0
   20.8590   22.0296   22.2707 H   0  0  0  0  0  0  0  0  0  0  0  0
   19.4737   20.5045   21.6651 C   0  0  0  0  0  0  0  0  0  0  0  0
   18.6648   20.8615   22.3156 H   0  0  0  0  0  0  0  0  0  0  0  0
   19.3416   21.0325   20.7119 H   0  0  0  0  0  0  0  0  0  0  0  0
   19.3122   18.9843   21.4040 C   0  0  0  0  0  0  0  0  0  0  0  0
   18.5949   18.8405   20.5848 H   0  0  0  0  0  0  0  0  0  0  0  0
   20.2580   18.5621   21.0396 H   0  0  0  0  0  0  0  0  0  0  0  0
   21.8974   20.4891   21.3984 O   0  0  0  0  0  0  0  0  0  0  0  0
   21.6575   20.7665   20.4907 H   0  0  0  0  0  0  0  0  0  0  0  0
  1  2  1  0  0  0  0
  1  3  1  0  0  0  0
  1  4  1  0  0  0  0
  4  5  1  0  0  0  0
  4  6  1  0  0  0  0
  4  7  1  0  0  0  0
  7  8  1  0  0  0  0
  7  9  1  0  0  0  0
  7 10  1  0  0  0  0
 10 11  1  0  0  0  0
 10 12  1  0  0  0  0
 10 13  1  0  0  0  0
 13 14  1  0  0  0  0
 13 15  1  0  0  0  0
 15 16  1  0  0  0  0
 15 17  1  0  0  0  0
  1 18  1  0  0  0  0
 15 18  1  0  0  0  0
 18 19  1  0  0  0  0
 18 20  1  0  0  0  0
 13 21  1  0  0  0  0
 21 22  1  0  0  0  0
M  END
> <VConfSearch Rank>
876

> <Conf_Id>
95

> <Delta U+W>
-2.289

> <U+W>
4.134

> <U>
6.373

> <W>
-2.240

> <W(PB)>
-4.254

> <W(SA)>
2.015

> <Valence>
12.093

> <Coulomb>
-8.058

> <VdW>
2.339

> <VdW6>
-9.683

> <VdW12>
12.022

> <Bond>
0.268

> <Angle>
3.005

> <Pdih>
8.820

> <Idih>
0.000

> <Tether>
0.000

$$$$
VeraChem MOL file


 22 22  0  0  0  0  0  0  0  0999 V2000     
   20.2838   17.9248   21.8744 C   0  0  0  0  0  0  0  0  0  0  0  0
   21.0510   17.1688   22.0906 H   0  0  0  0  0  0  0  0  0  0  0  0
   19.6434   17.4856   21.0973 H   0  0  0  0  0  0  0  0  0  0  0  0
   20.9869   19.1760   21.2960 C   0  0  0  0  0  0  0  0  0  0  0  0
   21.9567   19.3134   21.7931 H   0  0  0  0  0  0  0  0  0  0  0  0
   21.2233   18.9756   20.2421 H   0  0  0  0  0  0  0  0  0  0  0  0
   20.1714   20.4868   21.3871 C   0  0  0  0  0  0  0  0  0  0  0  0
   19.1036   20.2987   21.2105 H   0  0  0  0  0  0  0  0  0  0  0  0
   20.5022   21.1504   20.5768 H   0  0  0  0  0  0  0  0  0  0  0  0
   20.3884   21.2336   22.7274 C   0  0  0  0  0  0  0  0  0  0  0  0
   21.4658   21.3290   22.9148 H   0  0  0  0  0  0  0  0  0  0  0  0
   20.0197   22.2619   22.6200 H   0  0  0  0  0  0  0  0  0  0  0  0
   19.7234   20.6055   23.9736 C   0  0  0  0  0  0  0  0  0  0  0  0
   20.1138   21.1457   24.8482 H   0  0  0  0  0  0  0  0  0  0  0  0
   20.0283   19.1027   24.1948 C   0  0  0  0  0  0  0  0  0  0  0  0
   21.1124   18.9468   24.2655 H   0  0  0  0  0  0  0  0  0  0  0  0
   19.6216   18.8305   25.1774 H   0  0  0  0  0  0  0  0  0  0  0  0
   19.4193   18.1438   23.1389 C   0  0  0  0  0  0  0  0  0  0  0  0
   19.2521   17.1644   23.6070 H   0  0  0  0  0  0  0  0  0  0  0  0
   18.4226   18.4978   22.8441 H   0  0  0  0  0  0  0  0  0  0  0  0
   18.3159   20.8158   23.9144 O   0  0  0  0  0  0  0  0  0  0  0  0
   18.1806   21.7725   23.7573 H   0  0  0  0  0  0  0  0  0  0  0  0
  1  2  1  0  0  0  0
  1  3  1  0  0  0  0
  1  4  1  0  0  0  0
  4  5  1  0  0  0  0
  4  6  1  0  0  0  0
  4  7  1  0  0  0  0
  7  8  1  0  0  0  0
  7  9  1  0  0  0  0
  7 10  1  0  0  0  0
 10 11  1  0  0  0  0
 10 12  1  0  0  0  0
 10 13  1  0  0  0  0
 13 14  1  0  0  0  0
 13 15  1  0  0  0  0
 15 16  1  0  0  0  0
 15 17  1  0  0  0  0
  1 18  1  0  0  0  0
 15 18  1  0  0  0  0
 18 19  1  0  0  0  0
 18 20  1  0  0  0  0
 13 21  1  0  0  0  0
 21 22  1  0  0  0  0
M  END
> <VConfSearch Rank>
877

> <Conf_Id>
41

> <Delta U+W>
-2.114

> <U+W>
4.310

> <U>
6.598

> <W>
-2.289

> <W(PB)>
-4.294

> <W(SA)>
2.005

> <Valence>
12.082

> <Coulomb>
-7.801

> <VdW>
2.317

> <VdW6>
-9.658

> <VdW12>
11.975

> <Bond>
0.267

> <Angle>
3.051

> <Pdih>
8.764

> <Idih>
0.000

> <Tether>
0.000

$$$$
VeraChem MOL file


 22 22  0  0  0  0  0  0  0  0999 V2000     
   20.6421   19.3568   21.1550 C   0  0  0  0  0  0  0  0  0  0  0  0
   21.0736   19.4894   20.1536 H   0  0  0  0  0  0  0  0  0  0  0  0
   20.6319   18.2747   21.3452 H   0  0  0  0  0  0  0  0  0  0  0  0
   19.2038   19.9208   21.1297 C   0  0  0  0  0  0  0  0  0  0  0  0
   19.2387   21.0111   21.0008 H   0  0  0  0  0  0  0  0  0  0  0  0
   18.6889   19.5290   20.2419 H   0  0  0  0  0  0  0  0  0  0  0  0
   18.3545   19.5758   22.3727 C   0  0  0  0  0  0  0  0  0  0  0  0
   18.1420   18.4985   22.3825 H   0  0  0  0  0  0  0  0  0  0  0  0
   17.3785   20.0670   22.2625 H   0  0  0  0  0  0  0  0  0  0  0  0
   18.9683   20.0084   23.7319 C   0  0  0  0  0  0  0  0  0  0  0  0
   19.2527   21.0677   23.6967 H   0  0  0  0  0  0  0  0  0  0  0  0
   18.1779   19.9389   24.4902 H   0  0  0  0  0  0  0  0  0  0  0  0
   20.1627   19.1594   24.2383 C   0  0  0  0  0  0  0  0  0  0  0  0
   20.2680   19.3722   25.3121 H   0  0  0  0  0  0  0  0  0  0  0  0
   21.5391   19.4783   23.5988 C   0  0  0  0  0  0  0  0  0  0  0  0
   22.0647   20.1806   24.2588 H   0  0  0  0  0  0  0  0  0  0  0  0
   22.1532   18.5682   23.5991 H   0  0  0  0  0  0  0  0  0  0  0  0
   21.5498   20.0824   22.1726 C   0  0  0  0  0  0  0  0  0  0  0  0
   21.2825   21.1468   22.2164 H   0  0  0  0  0  0  0  0  0  0  0  0
   22.5840   20.0537   21.8037 H   0  0  0  0  0  0  0  0  0  0  0  0
   19.8802   17.7694   24.1002 O   0  0  0  0  0  0  0  0  0  0  0  0
   20.6471   17.2869   24.4703 H   0  0  0  0  0  0  0  0  0  0  0  0
  1  2  1  0  0  0  0
  1  3  1  0  0  0  0
  1  4  1  0  0  0  0
  4  5  1  0  0  0  0
  4  6  1  0  0  0  0
  4  7  1  0  0  0  0
  7  8  1  0  0  0  0
  7  9  1  0  0  0  0
  7 10  1  0  0  0  0
 10 11  1  0  0  0  0
 10 12  1  0  0  0  0
 10 13  1  0  0  0  0
 13 14  1  0  0  0  0
 13 15  1  0  0  0  0
 15 16  1  0  0  0  0
 15 17  1  0  0  0  0
  1 18  1  0  0  0  0
 15 18  1  0  0  0  0
 18 19  1  0  0  0  0
 18 20  1  0  0  0  0
 13 21  1  0  0  0  0
 21 22  1  0  0  0  0
M  END
> <VConfSearch Rank>
878

> <Conf_Id>
104

> <Delta U+W>
-1.172

> <U+W>
5.252

> <U>
7.482

> <W>
-2.230

> <W(PB)>
-4.220

> <W(SA)>
1.990

> <Valence>
12.309

> <Coulomb>
-7.084

> <VdW>
2.258

> <VdW6>
-9.770

> <VdW12>
12.028

> <Bond>
0.284

> <Angle>
3.491

> <Pdih>
8.535

> <Idih>
0.000

> <Tether>
0.000

$$$$
VeraChem MOL file


 22 22  0  0  0  0  0  0  0  0999 V2000     
   20.8860   20.8984   22.1106 C   0  0  0  0  0  0  0  0  0  0  0  0
   20.7731   21.4504   23.0535 H   0  0  0  0  0  0  0  0  0  0  0  0
   21.4297   21.5690   21.4311 H   0  0  0  0  0  0  0  0  0  0  0  0
   19.5079   20.5996   21.4772 C   0  0  0  0  0  0  0  0  0  0  0  0
   19.1528   21.5058   20.9674 H   0  0  0  0  0  0  0  0  0  0  0  0
   19.6279   19.8541   20.6803 H   0  0  0  0  0  0  0  0  0  0  0  0
   18.4001   20.1475   22.4621 C   0  0  0  0  0  0  0  0  0  0  0  0
   17.6614   19.5539   21.9060 H   0  0  0  0  0  0  0  0  0  0  0  0
   17.8574   21.0382   22.8072 H   0  0  0  0  0  0  0  0  0  0  0  0
   18.8469   19.3552   23.7207 C   0  0  0  0  0  0  0  0  0  0  0  0
   19.2402   20.0583   24.4663 H   0  0  0  0  0  0  0  0  0  0  0  0
   17.9515   18.9183   24.1815 H   0  0  0  0  0  0  0  0  0  0  0  0
   19.8800   18.2244   23.5112 C   0  0  0  0  0  0  0  0  0  0  0  0
   19.7886   17.5360   24.3637 H   0  0  0  0  0  0  0  0  0  0  0  0
   21.3379   18.7369   23.5051 C   0  0  0  0  0  0  0  0  0  0  0  0
   21.5224   19.2833   24.4391 H   0  0  0  0  0  0  0  0  0  0  0  0
   22.0066   17.8667   23.5349 H   0  0  0  0  0  0  0  0  0  0  0  0
   21.7514   19.6314   22.3103 C   0  0  0  0  0  0  0  0  0  0  0  0
   22.7917   19.9461   22.4700 H   0  0  0  0  0  0  0  0  0  0  0  0
   21.7614   19.0376   21.3864 H   0  0  0  0  0  0  0  0  0  0  0  0
   19.6059   17.5142   22.3134 O   0  0  0  0  0  0  0  0  0  0  0  0
   19.6232   18.2024   21.6188 H   0  0  0  0  0  0  0  0  0  0  0  0
  1  2  1  0  0  0  0
  1  3  1  0  0  0  0
  1  4  1  0  0  0  0
  4  5  1  0  0  0  0
  4  6  1  0  0  0  0
  4  7  1  0  0  0  0
  7  8  1  0  0  0  0
  7  9  1  0  0  0  0
  7 10  1  0  0  0  0
 10 11  1  0  0  0  0
 10 12  1  0  0  0  0
 10 13  1  0  0  0  0
 13 14  1  0  0  0  0
 13 15  1  0  0  0  0
 15 16  1  0  0  0  0
 15 17  1  0  0  0  0
  1 18  1  0  0  0  0
 15 18  1  0  0  0  0
 18 19  1  0  0  0  0
 18 20  1  0  0  0  0
 13 21  1  0  0  0  0
 21 22  1  0  0  0  0
M  END
> <VConfSearch Rank>
879

> <Conf_Id>
99

> <Delta U+W>
-3.852

> <U+W>
2.572

> <U>
3.922

> <W>
-1.350

> <W(PB)>
-3.345

> <W(SA)>
1.995

> <Valence>
12.571

> <Coulomb>
-10.581

> <VdW>
1.932

> <VdW6>
-10.483

> <VdW12>
12.415

> <Bond>
0.268

> <Angle>
3.728

> <Pdih>
8.575

> <Idih>
0.000

> <Tether>
0.000

$$$$
VeraChem MOL file


 22 22  0  0  0  0  0  0  0  0999 V2000     
   18.7469   20.1067   23.5442 C   0  0  0  0  0  0  0  0  0  0  0  0
   17.8163   20.6830   23.6396 H   0  0  0  0  0  0  0  0  0  0  0  0
   18.8604   19.5909   24.5070 H   0  0  0  0  0  0  0  0  0  0  0  0
   19.9140   21.1158   23.3354 C   0  0  0  0  0  0  0  0  0  0  0  0
   19.4885   22.1288   23.3405 H   0  0  0  0  0  0  0  0  0  0  0  0
   20.5949   21.0904   24.1966 H   0  0  0  0  0  0  0  0  0  0  0  0
   20.7272   20.9519   22.0259 C   0  0  0  0  0  0  0  0  0  0  0  0
   21.3786   21.8289   21.9107 H   0  0  0  0  0  0  0  0  0  0  0  0
   20.0516   20.9951   21.1626 H   0  0  0  0  0  0  0  0  0  0  0  0
   21.6183   19.6823   21.9318 C   0  0  0  0  0  0  0  0  0  0  0  0
   21.8126   19.4776   20.8711 H   0  0  0  0  0  0  0  0  0  0  0  0
   22.5995   19.9143   22.3670 H   0  0  0  0  0  0  0  0  0  0  0  0
   21.1092   18.3797   22.5969 C   0  0  0  0  0  0  0  0  0  0  0  0
   21.7496   17.5637   22.2325 H   0  0  0  0  0  0  0  0  0  0  0  0
   19.6467   17.9774   22.2849 C   0  0  0  0  0  0  0  0  0  0  0  0
   19.6081   17.5710   21.2660 H   0  0  0  0  0  0  0  0  0  0  0  0
   19.3875   17.1369   22.9424 H   0  0  0  0  0  0  0  0  0  0  0  0
   18.5423   19.0625   22.4170 C   0  0  0  0  0  0  0  0  0  0  0  0
   18.4105   19.5757   21.4563 H   0  0  0  0  0  0  0  0  0  0  0  0
   17.5863   18.5496   22.5893 H   0  0  0  0  0  0  0  0  0  0  0  0
   21.2916   18.4598   24.0017 O   0  0  0  0  0  0  0  0  0  0  0  0
   20.7056   19.1939   24.2747 H   0  0  0  0  0  0  0  0  0  0  0  0
  1  2  1  0  0  0  0
  1  3  1  0  0  0  0
  1  4  1  0  0  0  0
  4  5  1  0  0  0  0
  4  6  1  0  0  0  0
  4  7  1  0  0  0  0
  7  8  1  0  0  0  0
  7  9  1  0  0  0  0
  7 10  1  0  0  0  0
 10 11  1  0  0  0  0
 10 12  1  0  0  0  0
 10 13  1  0  0  0  0
 13 14  1  0  0  0  0
 13 15  1  0  0  0  0
 15 16  1  0  0  0  0
 15 17  1  0  0  0  0
  1 18  1  0  0  0  0
 15 18  1  0  0  0  0
 18 19  1  0  0  0  0
 18 20  1  0  0  0  0
 13 21  1  0  0  0  0
 21 22  1  0  0  0  0
M  END
> <VConfSearch Rank>
880

> <Conf_Id>
98

> <Delta U+W>
0.930

> <U+W>
7.353

> <U>
8.455

> <W>
-1.102

> <W(PB)>
-3.101

> <W(SA)>
2.000

> <Valence>
15.601

> <Coulomb>
-10.573

> <VdW>
3.427

> <VdW6>
-11.360

> <VdW12>
14.787

> <Bond>
0.471

> <Angle>
5.445

> <Pdih>
9.685

> <Idih>
0.000

> <Tether>
0.000

$$$$
VeraChem MOL file


 22 22  0  0  0  0  0  0  0  0999 V2000     
   21.3241   18.7238   23.4205 C   0  0  0  0  0  0  0  0  0  0  0  0
   21.9953   19.3301   22.7986 H   0  0  0  0  0  0  0  0  0  0  0  0
   21.9890   18.1328   24.0651 H   0  0  0  0  0  0  0  0  0  0  0  0
   20.5145   17.7524   22.5243 C   0  0  0  0  0  0  0  0  0  0  0  0
   21.2346   17.1202   21.9871 H   0  0  0  0  0  0  0  0  0  0  0  0
   19.9318   17.0684   23.1562 H   0  0  0  0  0  0  0  0  0  0  0  0
   19.5719   18.4083   21.4775 C   0  0  0  0  0  0  0  0  0  0  0  0
   18.5308   18.3525   21.8213 H   0  0  0  0  0  0  0  0  0  0  0  0
   19.6004   17.8008   20.5628 H   0  0  0  0  0  0  0  0  0  0  0  0
   19.9173   19.8759   21.1106 C   0  0  0  0  0  0  0  0  0  0  0  0
   20.9759   19.9368   20.8290 H   0  0  0  0  0  0  0  0  0  0  0  0
   19.3673   20.1418   20.1978 H   0  0  0  0  0  0  0  0  0  0  0  0
   19.6180   20.9396   22.2073 C   0  0  0  0  0  0  0  0  0  0  0  0
   20.4926   21.6016   22.2848 H   0  0  0  0  0  0  0  0  0  0  0  0
   19.3045   20.3860   23.6199 C   0  0  0  0  0  0  0  0  0  0  0  0
   18.9934   21.2168   24.2664 H   0  0  0  0  0  0  0  0  0  0  0  0
   18.4335   19.7214   23.5708 H   0  0  0  0  0  0  0  0  0  0  0  0
   20.4751   19.6520   24.3205 C   0  0  0  0  0  0  0  0  0  0  0  0
   21.1446   20.3983   24.7695 H   0  0  0  0  0  0  0  0  0  0  0  0
   20.0689   19.0689   25.1582 H   0  0  0  0  0  0  0  0  0  0  0  0
   18.4960   21.7107   21.7929 O   0  0  0  0  0  0  0  0  0  0  0  0
   18.3655   22.4065   22.4704 H   0  0  0  0  0  0  0  0  0  0  0  0
  1  2  1  0  0  0  0
  1  3  1  0  0  0  0
  1  4  1  0  0  0  0
  4  5  1  0  0  0  0
  4  6  1  0  0  0  0
  4  7  1  0  0  0  0
  7  8  1  0  0  0  0
  7  9  1  0  0  0  0
  7 10  1  0  0  0  0
 10 11  1  0  0  0  0
 10 12  1  0  0  0  0
 10 13  1  0  0  0  0
 13 14  1  0  0  0  0
 13 15  1  0  0  0  0
 15 16  1  0  0  0  0
 15 17  1  0  0  0  0
  1 18  1  0  0  0  0
 15 18  1  0  0  0  0
 18 19  1  0  0  0  0
 18 20  1  0  0  0  0
 13 21  1  0  0  0  0
 21 22  1  0  0  0  0
M  END
> <VConfSearch Rank>
881

> <Conf_Id>
141

> <Delta U+W>
0.000

> <U+W>
6.423

> <U>
8.781

> <W>
-2.358

> <W(PB)>
-4.373

> <W(SA)>
2.015

> <Valence>
13.328

> <Coulomb>
-8.387

> <VdW>
3.840

> <VdW6>
-9.744

> <VdW12>
13.584

> <Bond>
0.436

> <Angle>
3.478

> <Pdih>
9.415

> <Idih>
0.000

> <Tether>
0.000

$$$$
VeraChem MOL file


 22 22  0  0  0  0  0  0  0  0999 V2000     
   19.6454   21.2530   22.1627 C   0  0  0  0  0  0  0  0  0  0  0  0
   19.2916   21.4627   23.1812 H   0  0  0  0  0  0  0  0  0  0  0  0
   19.5819   22.2046   21.6173 H   0  0  0  0  0  0  0  0  0  0  0  0
   18.7154   20.2410   21.4510 C   0  0  0  0  0  0  0  0  0  0  0  0
   17.7476   20.7262   21.2646 H   0  0  0  0  0  0  0  0  0  0  0  0
   19.1259   20.0037   20.4600 H   0  0  0  0  0  0  0  0  0  0  0  0
   18.4554   18.9278   22.2244 C   0  0  0  0  0  0  0  0  0  0  0  0
   17.8429   18.2724   21.5902 H   0  0  0  0  0  0  0  0  0  0  0  0
   17.8444   19.1419   23.1120 H   0  0  0  0  0  0  0  0  0  0  0  0
   19.7284   18.1556   22.6488 C   0  0  0  0  0  0  0  0  0  0  0  0
   19.4167   17.1536   22.9719 H   0  0  0  0  0  0  0  0  0  0  0  0
   20.3950   18.0058   21.7896 H   0  0  0  0  0  0  0  0  0  0  0  0
   20.4850   18.8435   23.8073 C   0  0  0  0  0  0  0  0  0  0  0  0
   19.7471   19.3421   24.4521 H   0  0  0  0  0  0  0  0  0  0  0  0
   21.5263   19.8944   23.3595 C   0  0  0  0  0  0  0  0  0  0  0  0
   21.7540   20.5260   24.2279 H   0  0  0  0  0  0  0  0  0  0  0  0
   22.4660   19.3878   23.1015 H   0  0  0  0  0  0  0  0  0  0  0  0
   21.1260   20.8060   22.1726 C   0  0  0  0  0  0  0  0  0  0  0  0
   21.7676   21.6973   22.1977 H   0  0  0  0  0  0  0  0  0  0  0  0
   21.3613   20.3010   21.2258 H   0  0  0  0  0  0  0  0  0  0  0  0
   21.1609   17.8494   24.5677 O   0  0  0  0  0  0  0  0  0  0  0  0
   20.4743   17.2366   24.9048 H   0  0  0  0  0  0  0  0  0  0  0  0
  1  2  1  0  0  0  0
  1  3  1  0  0  0  0
  1  4  1  0  0  0  0
  4  5  1  0  0  0  0
  4  6  1  0  0  0  0
  4  7  1  0  0  0  0
  7  8  1  0  0  0  0
  7  9  1  0  0  0  0
  7 10  1  0  0  0  0
 10 11  1  0  0  0  0
 10 12  1  0  0  0  0
 10 13  1  0  0  0  0
 13 14  1  0  0  0  0
 13 15  1  0  0  0  0
 15 16  1  0  0  0  0
 15 17  1  0  0  0  0
  1 18  1  0  0  0  0
 15 18  1  0  0  0  0
 18 19  1  0  0  0  0
 18 20  1  0  0  0  0
 13 21  1  0  0  0  0
 21 22  1  0  0  0  0
M  END
> <VConfSearch Rank>
882

> <Conf_Id>
144

> <Delta U+W>
-3.291

> <U+W>
3.132

> <U>
5.411

> <W>
-2.279

> <W(PB)>
-4.300

> <W(SA)>
2.021

> <Valence>
11.909

> <Coulomb>
-8.733

> <VdW>
2.236

> <VdW6>
-8.936

> <VdW12>
11.172

> <Bond>
0.223

> <Angle>
2.457

> <Pdih>
9.228

> <Idih>
0.000

> <Tether>
0.000

$$$$
VeraChem MOL file


 22 22  0  0  0  0  0  0  0  0999 V2000     
   18.7292   20.2139   23.7024 C   0  0  0  0  0  0  0  0  0  0  0  0
   17.7891   20.5866   24.1318 H   0  0  0  0  0  0  0  0  0  0  0  0
   19.4848   20.3122   24.4937 H   0  0  0  0  0  0  0  0  0  0  0  0
   19.0850   21.1019   22.4871 C   0  0  0  0  0  0  0  0  0  0  0  0
   18.5265   20.7570   21.6063 H   0  0  0  0  0  0  0  0  0  0  0  0
   18.7295   22.1238   22.6775 H   0  0  0  0  0  0  0  0  0  0  0  0
   20.5936   21.1774   22.1488 C   0  0  0  0  0  0  0  0  0  0  0  0
   21.0651   21.9382   22.7857 H   0  0  0  0  0  0  0  0  0  0  0  0
   20.6953   21.5462   21.1189 H   0  0  0  0  0  0  0  0  0  0  0  0
   21.3968   19.8615   22.2946 C   0  0  0  0  0  0  0  0  0  0  0  0
   22.3280   19.9713   21.7225 H   0  0  0  0  0  0  0  0  0  0  0  0
   21.7033   19.7404   23.3416 H   0  0  0  0  0  0  0  0  0  0  0  0
   20.6530   18.5894   21.8296 C   0  0  0  0  0  0  0  0  0  0  0  0
   20.0079   18.8323   20.9733 H   0  0  0  0  0  0  0  0  0  0  0  0
   19.8043   17.9546   22.9546 C   0  0  0  0  0  0  0  0  0  0  0  0
   19.5144   16.9410   22.6471 H   0  0  0  0  0  0  0  0  0  0  0  0
   20.4209   17.8338   23.8548 H   0  0  0  0  0  0  0  0  0  0  0  0
   18.5163   18.7289   23.3223 C   0  0  0  0  0  0  0  0  0  0  0  0
   17.8025   18.6641   22.4898 H   0  0  0  0  0  0  0  0  0  0  0  0
   18.0373   18.2162   24.1676 H   0  0  0  0  0  0  0  0  0  0  0  0
   21.6196   17.6316   21.4190 O   0  0  0  0  0  0  0  0  0  0  0  0
   22.1734   17.4432   22.2045 H   0  0  0  0  0  0  0  0  0  0  0  0
  1  2  1  0  0  0  0
  1  3  1  0  0  0  0
  1  4  1  0  0  0  0
  4  5  1  0  0  0  0
  4  6  1  0  0  0  0
  4  7  1  0  0  0  0
  7  8  1  0  0  0  0
  7  9  1  0  0  0  0
  7 10  1  0  0  0  0
 10 11  1  0  0  0  0
 10 12  1  0  0  0  0
 10 13  1  0  0  0  0
 13 14  1  0  0  0  0
 13 15  1  0  0  0  0
 15 16  1  0  0  0  0
 15 17  1  0  0  0  0
  1 18  1  0  0  0  0
 15 18  1  0  0  0  0
 18 19  1  0  0  0  0
 18 20  1  0  0  0  0
 13 21  1  0  0  0  0
 21 22  1  0  0  0  0
M  END
> <VConfSearch Rank>
883

> <Conf_Id>
76

> <Delta U+W>
-3.175

> <U+W>
3.248

> <U>
5.336

> <W>
-2.088

> <W(PB)>
-4.098

> <W(SA)>
2.010

> <Valence>
12.390

> <Coulomb>
-9.270

> <VdW>
2.216

> <VdW6>
-8.967

> <VdW12>
11.183

> <Bond>
0.218

> <Angle>
2.426

> <Pdih>
9.745

> <Idih>
0.000

> <Tether>
0.000

$$$$
VeraChem MOL file


 22 22  0  0  0  0  0  0  0  0999 V2000     
   20.5975   18.3647   24.0348 C   0  0  0  0  0  0  0  0  0  0  0  0
   21.6077   18.2317   24.4454 H   0  0  0  0  0  0  0  0  0  0  0  0
   19.9448   17.7139   24.6324 H   0  0  0  0  0  0  0  0  0  0  0  0
   20.6003   17.8638   22.5706 C   0  0  0  0  0  0  0  0  0  0  0  0
   21.5605   18.1139   22.0994 H   0  0  0  0  0  0  0  0  0  0  0  0
   20.5586   16.7662   22.5873 H   0  0  0  0  0  0  0  0  0  0  0  0
   19.4430   18.3971   21.6944 C   0  0  0  0  0  0  0  0  0  0  0  0
   18.5125   18.4710   22.2738 H   0  0  0  0  0  0  0  0  0  0  0  0
   19.2501   17.6630   20.9006 H   0  0  0  0  0  0  0  0  0  0  0  0
   19.7783   19.7493   21.0154 C   0  0  0  0  0  0  0  0  0  0  0  0
   20.7465   19.6664   20.5051 H   0  0  0  0  0  0  0  0  0  0  0  0
   19.0421   19.9351   20.2223 H   0  0  0  0  0  0  0  0  0  0  0  0
   19.8069   20.9887   21.9385 C   0  0  0  0  0  0  0  0  0  0  0  0
   20.2319   21.8136   21.3487 H   0  0  0  0  0  0  0  0  0  0  0  0
   20.6779   20.8426   23.2115 C   0  0  0  0  0  0  0  0  0  0  0  0
   21.7081   20.5887   22.9302 H   0  0  0  0  0  0  0  0  0  0  0  0
   20.7361   21.8297   23.6879 H   0  0  0  0  0  0  0  0  0  0  0  0
   20.1492   19.8286   24.2591 C   0  0  0  0  0  0  0  0  0  0  0  0
   20.4933   20.1376   25.2553 H   0  0  0  0  0  0  0  0  0  0  0  0
   19.0530   19.8707   24.3043 H   0  0  0  0  0  0  0  0  0  0  0  0
   18.4736   21.3396   22.2953 O   0  0  0  0  0  0  0  0  0  0  0  0
   18.5403   22.0920   22.9179 H   0  0  0  0  0  0  0  0  0  0  0  0
  1  2  1  0  0  0  0
  1  3  1  0  0  0  0
  1  4  1  0  0  0  0
  4  5  1  0  0  0  0
  4  6  1  0  0  0  0
  4  7  1  0  0  0  0
  7  8  1  0  0  0  0
  7  9  1  0  0  0  0
  7 10  1  0  0  0  0
 10 11  1  0  0  0  0
 10 12  1  0  0  0  0
 10 13  1  0  0  0  0
 13 14  1  0  0  0  0
 13 15  1  0  0  0  0
 15 16  1  0  0  0  0
 15 17  1  0  0  0  0
  1 18  1  0  0  0  0
 15 18  1  0  0  0  0
 18 19  1  0  0  0  0
 18 20  1  0  0  0  0
 13 21  1  0  0  0  0
 21 22  1  0  0  0  0
M  END
> <VConfSearch Rank>
884

> <Conf_Id>
95

> <Delta U+W>
-2.289

> <U+W>
4.134

> <U>
6.373

> <W>
-2.240

> <W(PB)>
-4.254

> <W(SA)>
2.015

> <Valence>
12.093

> <Coulomb>
-8.058

> <VdW>
2.339

> <VdW6>
-9.683

> <VdW12>
12.022

> <Bond>
0.268

> <Angle>
3.005

> <Pdih>
8.820

> <Idih>
0.000

> <Tether>
0.000

$$$$
VeraChem MOL file


 22 22  0  0  0  0  0  0  0  0999 V2000     
   21.7414   18.9696   23.2905 C   0  0  0  0  0  0  0  0  0  0  0  0
   22.7399   19.3276   23.0051 H   0  0  0  0  0  0  0  0  0  0  0  0
   21.9103   18.1677   24.0222 H   0  0  0  0  0  0  0  0  0  0  0  0
   21.0658   18.3680   22.0351 C   0  0  0  0  0  0  0  0  0  0  0  0
   21.3520   18.9523   21.1502 H   0  0  0  0  0  0  0  0  0  0  0  0
   21.4840   17.3653   21.8724 H   0  0  0  0  0  0  0  0  0  0  0  0
   19.5245   18.2636   22.1068 C   0  0  0  0  0  0  0  0  0  0  0  0
   19.1955   17.9906   23.1188 H   0  0  0  0  0  0  0  0  0  0  0  0
   19.2084   17.4410   21.4511 H   0  0  0  0  0  0  0  0  0  0  0  0
   18.8151   19.5532   21.6222 C   0  0  0  0  0  0  0  0  0  0  0  0
   19.2279   19.8455   20.6480 H   0  0  0  0  0  0  0  0  0  0  0  0
   17.7586   19.3227   21.4333 H   0  0  0  0  0  0  0  0  0  0  0  0
   18.8857   20.7692   22.5741 C   0  0  0  0  0  0  0  0  0  0  0  0
   18.4966   21.6328   22.0155 H   0  0  0  0  0  0  0  0  0  0  0  0
   20.3090   21.1447   23.0572 C   0  0  0  0  0  0  0  0  0  0  0  0
   20.9575   21.3427   22.1942 H   0  0  0  0  0  0  0  0  0  0  0  0
   20.2277   22.0975   23.5960 H   0  0  0  0  0  0  0  0  0  0  0  0
   20.9786   20.1127   24.0017 C   0  0  0  0  0  0  0  0  0  0  0  0
   21.6899   20.6395   24.6519 H   0  0  0  0  0  0  0  0  0  0  0  0
   20.2280   19.6854   24.6798 H   0  0  0  0  0  0  0  0  0  0  0  0
   18.0329   20.5436   23.6925 O   0  0  0  0  0  0  0  0  0  0  0  0
   17.1571   20.2947   23.3329 H   0  0  0  0  0  0  0  0  0  0  0  0
  1  2  1  0  0  0  0
  1  3  1  0  0  0  0
  1  4  1  0  0  0  0
  4  5  1  0  0  0  0
  4  6  1  0  0  0  0
  4  7  1  0  0  0  0
  7  8  1  0  0  0  0
  7  9  1  0  0  0  0
  7 10  1  0  0  0  0
 10 11  1  0  0  0  0
 10 12  1  0  0  0  0
 10 13  1  0  0  0  0
 13 14  1  0  0  0  0
 13 15  1  0  0  0  0
 15 16  1  0  0  0  0
 15 17  1  0  0  0  0
  1 18  1  0  0  0  0
 15 18  1  0  0  0  0
 18 19  1  0  0  0  0
 18 20  1  0  0  0  0
 13 21  1  0  0  0  0
 21 22  1  0  0  0  0
M  END
> <VConfSearch Rank>
885

> <Conf_Id>
41

> <Delta U+W>
-2.114

> <U+W>
4.310

> <U>
6.598

> <W>
-2.289

> <W(PB)>
-4.294

> <W(SA)>
2.005

> <Valence>
12.082

> <Coulomb>
-7.801

> <VdW>
2.317

> <VdW6>
-9.658

> <VdW12>
11.975

> <Bond>
0.267

> <Angle>
3.051

> <Pdih>
8.764

> <Idih>
0.000

> <Tether>
0.000

$$$$
VeraChem MOL file


 22 22  0  0  0  0  0  0  0  0999 V2000     
   20.4465   18.9200   21.2104 C   0  0  0  0  0  0  0  0  0  0  0  0
   20.8269   18.3425   20.3569 H   0  0  0  0  0  0  0  0  0  0  0  0
   19.5604   19.4587   20.8473 H   0  0  0  0  0  0  0  0  0  0  0  0
   21.5503   19.9115   21.6413 C   0  0  0  0  0  0  0  0  0  0  0  0
   22.4012   19.3558   22.0583 H   0  0  0  0  0  0  0  0  0  0  0  0
   21.9329   20.4211   20.7466 H   0  0  0  0  0  0  0  0  0  0  0  0
   21.0923   20.9864   22.6512 C   0  0  0  0  0  0  0  0  0  0  0  0
   20.3921   21.6749   22.1596 H   0  0  0  0  0  0  0  0  0  0  0  0
   21.9665   21.5959   22.9164 H   0  0  0  0  0  0  0  0  0  0  0  0
   20.4649   20.4366   23.9610 C   0  0  0  0  0  0  0  0  0  0  0  0
   21.1303   19.6902   24.4129 H   0  0  0  0  0  0  0  0  0  0  0  0
   20.4174   21.2649   24.6795 H   0  0  0  0  0  0  0  0  0  0  0  0
   19.0320   19.8575   23.8364 C   0  0  0  0  0  0  0  0  0  0  0  0
   18.6195   19.8150   24.8549 H   0  0  0  0  0  0  0  0  0  0  0  0
   18.9310   18.4173   23.2700 C   0  0  0  0  0  0  0  0  0  0  0  0
   18.8829   17.7224   24.1184 H   0  0  0  0  0  0  0  0  0  0  0  0
   17.9707   18.3040   22.7500 H   0  0  0  0  0  0  0  0  0  0  0  0
   20.0628   17.9296   22.3319 C   0  0  0  0  0  0  0  0  0  0  0  0
   20.9528   17.6740   22.9227 H   0  0  0  0  0  0  0  0  0  0  0  0
   19.7347   16.9877   21.8716 H   0  0  0  0  0  0  0  0  0  0  0  0
   18.2056   20.7322   23.0730 O   0  0  0  0  0  0  0  0  0  0  0  0
   17.3101   20.3375   23.0623 H   0  0  0  0  0  0  0  0  0  0  0  0
  1  2  1  0  0  0  0
  1  3  1  0  0  0  0
  1  4  1  0  0  0  0
  4  5  1  0  0  0  0
  4  6  1  0  0  0  0
  4  7  1  0  0  0  0
  7  8  1  0  0  0  0
  7  9  1  0  0  0  0
  7 10  1  0  0  0  0
 10 11  1  0  0  0  0
 10 12  1  0  0  0  0
 10 13  1  0  0  0  0
 13 14  1  0  0  0  0
 13 15  1  0  0  0  0
 15 16  1  0  0  0  0
 15 17  1  0  0  0  0
  1 18  1  0  0  0  0
 15 18  1  0  0  0  0
 18 19  1  0  0  0  0
 18 20  1  0  0  0  0
 13 21  1  0  0  0  0
 21 22  1  0  0  0  0
M  END
> <VConfSearch Rank>
886

> <Conf_Id>
104

> <Delta U+W>
-1.172

> <U+W>
5.252

> <U>
7.482

> <W>
-2.230

> <W(PB)>
-4.220

> <W(SA)>
1.990

> <Valence>
12.309

> <Coulomb>
-7.084

> <VdW>
2.258

> <VdW6>
-9.770

> <VdW12>
12.028

> <Bond>
0.284

> <Angle>
3.491

> <Pdih>
8.535

> <Idih>
0.000

> <Tether>
0.000

$$$$
VeraChem MOL file


 22 22  0  0  0  0  0  0  0  0999 V2000     
   20.5558   18.6472   23.9257 C   0  0  0  0  0  0  0  0  0  0  0  0
   19.8024   17.8736   23.7247 H   0  0  0  0  0  0  0  0  0  0  0  0
   21.1045   18.3105   24.8159 H   0  0  0  0  0  0  0  0  0  0  0  0
   19.8839   19.9969   24.2669 C   0  0  0  0  0  0  0  0  0  0  0  0
   19.5539   19.9690   25.3146 H   0  0  0  0  0  0  0  0  0  0  0  0
   20.6345   20.7971   24.2270 H   0  0  0  0  0  0  0  0  0  0  0  0
   18.6592   20.3763   23.3964 C   0  0  0  0  0  0  0  0  0  0  0  0
   18.5552   21.4702   23.4004 H   0  0  0  0  0  0  0  0  0  0  0  0
   17.7529   19.9960   23.8872 H   0  0  0  0  0  0  0  0  0  0  0  0
   18.6444   19.8685   21.9290 C   0  0  0  0  0  0  0  0  0  0  0  0
   18.3415   18.8135   21.9174 H   0  0  0  0  0  0  0  0  0  0  0  0
   17.8484   20.4023   21.3938 H   0  0  0  0  0  0  0  0  0  0  0  0
   19.9524   20.0183   21.1186 C   0  0  0  0  0  0  0  0  0  0  0  0
   19.6810   19.9982   20.0533 H   0  0  0  0  0  0  0  0  0  0  0  0
   20.9391   18.8517   21.3503 C   0  0  0  0  0  0  0  0  0  0  0  0
   20.4280   17.9080   21.1198 H   0  0  0  0  0  0  0  0  0  0  0  0
   21.7486   18.9369   20.6137 H   0  0  0  0  0  0  0  0  0  0  0  0
   21.5695   18.7494   22.7613 C   0  0  0  0  0  0  0  0  0  0  0  0
   22.2078   17.8555   22.7804 H   0  0  0  0  0  0  0  0  0  0  0  0
   22.2459   19.5983   22.9295 H   0  0  0  0  0  0  0  0  0  0  0  0
   20.5812   21.2565   21.4112 O   0  0  0  0  0  0  0  0  0  0  0  0
   20.7139   21.2337   22.3797 H   0  0  0  0  0  0  0  0  0  0  0  0
  1  2  1  0  0  0  0
  1  3  1  0  0  0  0
  1  4  1  0  0  0  0
  4  5  1  0  0  0  0
  4  6  1  0  0  0  0
  4  7  1  0  0  0  0
  7  8  1  0  0  0  0
  7  9  1  0  0  0  0
  7 10  1  0  0  0  0
 10 11  1  0  0  0  0
 10 12  1  0  0  0  0
 10 13  1  0  0  0  0
 13 14  1  0  0  0  0
 13 15  1  0  0  0  0
 15 16  1  0  0  0  0
 15 17  1  0  0  0  0
  1 18  1  0  0  0  0
 15 18  1  0  0  0  0
 18 19  1  0  0  0  0
 18 20  1  0  0  0  0
 13 21  1  0  0  0  0
 21 22  1  0  0  0  0
M  END
> <VConfSearch Rank>
887

> <Conf_Id>
99

> <Delta U+W>
-3.852

> <U+W>
2.572

> <U>
3.922

> <W>
-1.350

> <W(PB)>
-3.345

> <W(SA)>
1.995

> <Valence>
12.571

> <Coulomb>
-10.581

> <VdW>
1.932

> <VdW6>
-10.483

> <VdW12>
12.415

> <Bond>
0.268

> <Angle>
3.728

> <Pdih>
8.575

> <Idih>
0.000

> <Tether>
0.000

$$$$
VeraChem MOL file


 22 22  0  0  0  0  0  0  0  0999 V2000     
   21.6371   19.2627   22.1972 C   0  0  0  0  0  0  0  0  0  0  0  0
   22.6046   18.7587   22.3282 H   0  0  0  0  0  0  0  0  0  0  0  0
   21.7401   19.8354   21.2658 H   0  0  0  0  0  0  0  0  0  0  0  0
   21.4351   20.2287   23.4013 C   0  0  0  0  0  0  0  0  0  0  0  0
   22.3152   20.1429   24.0534 H   0  0  0  0  0  0  0  0  0  0  0  0
   21.4397   21.2710   23.0552 H   0  0  0  0  0  0  0  0  0  0  0  0
   20.1768   19.9762   24.2707 C   0  0  0  0  0  0  0  0  0  0  0  0
   20.2561   20.5869   25.1804 H   0  0  0  0  0  0  0  0  0  0  0  0
   20.1787   18.9407   24.6328 H   0  0  0  0  0  0  0  0  0  0  0  0
   18.8111   20.2955   23.6015 C   0  0  0  0  0  0  0  0  0  0  0  0
   18.0313   19.7286   24.1262 H   0  0  0  0  0  0  0  0  0  0  0  0
   18.5741   21.3521   23.7840 H   0  0  0  0  0  0  0  0  0  0  0  0
   18.6635   20.0402   22.0812 C   0  0  0  0  0  0  0  0  0  0  0  0
   17.5907   20.1052   21.8492 H   0  0  0  0  0  0  0  0  0  0  0  0
   19.1524   18.6638   21.5669 C   0  0  0  0  0  0  0  0  0  0  0  0
   18.4128   17.9041   21.8509 H   0  0  0  0  0  0  0  0  0  0  0  0
   19.1304   18.6939   20.4694 H   0  0  0  0  0  0  0  0  0  0  0  0
   20.5549   18.1678   22.0161 C   0  0  0  0  0  0  0  0  0  0  0  0
   20.4625   17.5822   22.9392 H   0  0  0  0  0  0  0  0  0  0  0  0
   20.9124   17.4479   21.2673 H   0  0  0  0  0  0  0  0  0  0  0  0
   19.3115   21.0757   21.3594 O   0  0  0  0  0  0  0  0  0  0  0  0
   20.2549   20.9755   21.5979 H   0  0  0  0  0  0  0  0  0  0  0  0
  1  2  1  0  0  0  0
  1  3  1  0  0  0  0
  1  4  1  0  0  0  0
  4  5  1  0  0  0  0
  4  6  1  0  0  0  0
  4  7  1  0  0  0  0
  7  8  1  0  0  0  0
  7  9  1  0  0  0  0
  7 10  1  0  0  0  0
 10 11  1  0  0  0  0
 10 12  1  0  0  0  0
 10 13  1  0  0  0  0
 13 14  1  0  0  0  0
 13 15  1  0  0  0  0
 15 16  1  0  0  0  0
 15 17  1  0  0  0  0
  1 18  1  0  0  0  0
 15 18  1  0  0  0  0
 18 19  1  0  0  0  0
 18 20  1  0  0  0  0
 13 21  1  0  0  0  0
 21 22  1  0  0  0  0
M  END
> <VConfSearch Rank>
888

> <Conf_Id>
98

> <Delta U+W>
0.930

> <U+W>
7.353

> <U>
8.455

> <W>
-1.102

> <W(PB)>
-3.101

> <W(SA)>
2.000

> <Valence>
15.601

> <Coulomb>
-10.573

> <VdW>
3.427

> <VdW6>
-11.360

> <VdW12>
14.787

> <Bond>
0.471

> <Angle>
5.445

> <Pdih>
9.685

> <Idih>
0.000

> <Tether>
0.000

$$$$
VeraChem MOL file


 22 22  0  0  0  0  0  0  0  0999 V2000     
   20.0497   18.3878   23.9356 C   0  0  0  0  0  0  0  0  0  0  0  0
   19.2055   17.8892   23.4421 H   0  0  0  0  0  0  0  0  0  0  0  0
   20.2866   17.7564   24.8026 H   0  0  0  0  0  0  0  0  0  0  0  0
   19.6079   19.7826   24.4471 C   0  0  0  0  0  0  0  0  0  0  0  0
   18.7750   19.6295   25.1469 H   0  0  0  0  0  0  0  0  0  0  0  0
   20.4168   20.2296   25.0408 H   0  0  0  0  0  0  0  0  0  0  0  0
   19.1488   20.7975   23.3637 C   0  0  0  0  0  0  0  0  0  0  0  0
   19.9394   21.5370   23.1817 H   0  0  0  0  0  0  0  0  0  0  0  0
   18.3086   21.3763   23.7708 H   0  0  0  0  0  0  0  0  0  0  0  0
   18.7106   20.1664   22.0157 C   0  0  0  0  0  0  0  0  0  0  0  0
   17.9668   19.3836   22.2097 H   0  0  0  0  0  0  0  0  0  0  0  0
   18.1726   20.9289   21.4365 H   0  0  0  0  0  0  0  0  0  0  0  0
   19.8534   19.5791   21.1364 C   0  0  0  0  0  0  0  0  0  0  0  0
   19.5324   18.5894   20.7804 H   0  0  0  0  0  0  0  0  0  0  0  0
   21.2287   19.4197   21.8316 C   0  0  0  0  0  0  0  0  0  0  0  0
   21.9723   19.1162   21.0831 H   0  0  0  0  0  0  0  0  0  0  0  0
   21.5731   20.3949   22.1964 H   0  0  0  0  0  0  0  0  0  0  0  0
   21.2728   18.3907   22.9887 C   0  0  0  0  0  0  0  0  0  0  0  0
   21.3786   17.3829   22.5643 H   0  0  0  0  0  0  0  0  0  0  0  0
   22.1836   18.5670   23.5770 H   0  0  0  0  0  0  0  0  0  0  0  0
   20.0402   20.4312   20.0120 O   0  0  0  0  0  0  0  0  0  0  0  0
   20.7218   20.0098   19.4482 H   0  0  0  0  0  0  0  0  0  0  0  0
  1  2  1  0  0  0  0
  1  3  1  0  0  0  0
  1  4  1  0  0  0  0
  4  5  1  0  0  0  0
  4  6  1  0  0  0  0
  4  7  1  0  0  0  0
  7  8  1  0  0  0  0
  7  9  1  0  0  0  0
  7 10  1  0  0  0  0
 10 11  1  0  0  0  0
 10 12  1  0  0  0  0
 10 13  1  0  0  0  0
 13 14  1  0  0  0  0
 13 15  1  0  0  0  0
 15 16  1  0  0  0  0
 15 17  1  0  0  0  0
  1 18  1  0  0  0  0
 15 18  1  0  0  0  0
 18 19  1  0  0  0  0
 18 20  1  0  0  0  0
 13 21  1  0  0  0  0
 21 22  1  0  0  0  0
M  END
> <VConfSearch Rank>
889

> <Conf_Id>
141

> <Delta U+W>
0.000

> <U+W>
6.423

> <U>
8.781

> <W>
-2.358

> <W(PB)>
-4.373

> <W(SA)>
2.015

> <Valence>
13.328

> <Coulomb>
-8.387

> <VdW>
3.840

> <VdW6>
-9.744

> <VdW12>
13.584

> <Bond>
0.436

> <Angle>
3.478

> <Pdih>
9.415

> <Idih>
0.000

> <Tether>
0.000

$$$$
VeraChem MOL file


 22 22  0  0  0  0  0  0  0  0999 V2000     
   19.2063   18.4512   21.6055 C   0  0  0  0  0  0  0  0  0  0  0  0
   18.3660   19.1502   21.4958 H   0  0  0  0  0  0  0  0  0  0  0  0
   18.9767   17.5959   20.9555 H   0  0  0  0  0  0  0  0  0  0  0  0
   19.3024   17.9248   23.0579 C   0  0  0  0  0  0  0  0  0  0  0  0
   18.4363   17.2781   23.2537 H   0  0  0  0  0  0  0  0  0  0  0  0
   20.1853   17.2779   23.1530 H   0  0  0  0  0  0  0  0  0  0  0  0
   19.3472   19.0153   24.1529 C   0  0  0  0  0  0  0  0  0  0  0  0
   19.4829   18.5200   25.1240 H   0  0  0  0  0  0  0  0  0  0  0  0
   18.3721   19.5184   24.2068 H   0  0  0  0  0  0  0  0  0  0  0  0
   20.4642   20.0730   23.9773 C   0  0  0  0  0  0  0  0  0  0  0  0
   20.5378   20.6370   24.9164 H   0  0  0  0  0  0  0  0  0  0  0  0
   21.4384   19.5875   23.8354 H   0  0  0  0  0  0  0  0  0  0  0  0
   20.1768   21.0579   22.8218 C   0  0  0  0  0  0  0  0  0  0  0  0
   19.0889   21.2022   22.7552 H   0  0  0  0  0  0  0  0  0  0  0  0
   20.6898   20.5932   21.4397 C   0  0  0  0  0  0  0  0  0  0  0  0
   20.1649   21.1821   20.6764 H   0  0  0  0  0  0  0  0  0  0  0  0
   21.7526   20.8518   21.3408 H   0  0  0  0  0  0  0  0  0  0  0  0
   20.5246   19.0889   21.1080 C   0  0  0  0  0  0  0  0  0  0  0  0
   20.5877   18.9729   20.0175 H   0  0  0  0  0  0  0  0  0  0  0  0
   21.3775   18.5276   21.5132 H   0  0  0  0  0  0  0  0  0  0  0  0
   20.7876   22.3070   23.1215 O   0  0  0  0  0  0  0  0  0  0  0  0
   20.3930   22.6196   23.9624 H   0  0  0  0  0  0  0  0  0  0  0  0
  1  2  1  0  0  0  0
  1  3  1  0  0  0  0
  1  4  1  0  0  0  0
  4  5  1  0  0  0  0
  4  6  1  0  0  0  0
  4  7  1  0  0  0  0
  7  8  1  0  0  0  0
  7  9  1  0  0  0  0
  7 10  1  0  0  0  0
 10 11  1  0  0  0  0
 10 12  1  0  0  0  0
 10 13  1  0  0  0  0
 13 14  1  0  0  0  0
 13 15  1  0  0  0  0
 15 16  1  0  0  0  0
 15 17  1  0  0  0  0
  1 18  1  0  0  0  0
 15 18  1  0  0  0  0
 18 19  1  0  0  0  0
 18 20  1  0  0  0  0
 13 21  1  0  0  0  0
 21 22  1  0  0  0  0
M  END
> <VConfSearch Rank>
890

> <Conf_Id>
144

> <Delta U+W>
-3.291

> <U+W>
3.132

> <U>
5.411

> <W>
-2.279

> <W(PB)>
-4.300

> <W(SA)>
2.021

> <Valence>
11.909

> <Coulomb>
-8.733

> <VdW>
2.236

> <VdW6>
-8.936

> <VdW12>
11.172

> <Bond>
0.223

> <Angle>
2.457

> <Pdih>
9.228

> <Idih>
0.000

> <Tether>
0.000

$$$$
VeraChem MOL file


 22 22  0  0  0  0  0  0  0  0999 V2000     
   19.1157   20.8593   21.8676 C   0  0  0  0  0  0  0  0  0  0  0  0
   18.4356   21.6857   21.6197 H   0  0  0  0  0  0  0  0  0  0  0  0
   19.7929   20.7551   21.0090 H   0  0  0  0  0  0  0  0  0  0  0  0
   18.2659   19.5811   22.0577 C   0  0  0  0  0  0  0  0  0  0  0  0
   17.8504   19.5662   23.0745 H   0  0  0  0  0  0  0  0  0  0  0  0
   17.3971   19.6290   21.3870 H   0  0  0  0  0  0  0  0  0  0  0  0
   19.0090   18.2518   21.7808 C   0  0  0  0  0  0  0  0  0  0  0  0
   18.9898   18.0497   20.7011 H   0  0  0  0  0  0  0  0  0  0  0  0
   18.4380   17.4370   22.2467 H   0  0  0  0  0  0  0  0  0  0  0  0
   20.4797   18.1745   22.2597 C   0  0  0  0  0  0  0  0  0  0  0  0
   20.7624   17.1141   22.3065 H   0  0  0  0  0  0  0  0  0  0  0  0
   21.1308   18.6227   21.4980 H   0  0  0  0  0  0  0  0  0  0  0  0
   20.7561   18.8425   23.6253 C   0  0  0  0  0  0  0  0  0  0  0  0
   19.8818   18.7178   24.2799 H   0  0  0  0  0  0  0  0  0  0  0  0
   21.0943   20.3448   23.4924 C   0  0  0  0  0  0  0  0  0  0  0  0
   21.5218   20.6944   24.4417 H   0  0  0  0  0  0  0  0  0  0  0  0
   21.8810   20.4779   22.7383 H   0  0  0  0  0  0  0  0  0  0  0  0
   19.8965   21.2594   23.1425 C   0  0  0  0  0  0  0  0  0  0  0  0
   19.2061   21.2975   23.9962 H   0  0  0  0  0  0  0  0  0  0  0  0
   20.2724   22.2838   23.0159 H   0  0  0  0  0  0  0  0  0  0  0  0
   21.8722   18.1952   24.2216 O   0  0  0  0  0  0  0  0  0  0  0  0
   22.6267   18.3263   23.6111 H   0  0  0  0  0  0  0  0  0  0  0  0
  1  2  1  0  0  0  0
  1  3  1  0  0  0  0
  1  4  1  0  0  0  0
  4  5  1  0  0  0  0
  4  6  1  0  0  0  0
  4  7  1  0  0  0  0
  7  8  1  0  0  0  0
  7  9  1  0  0  0  0
  7 10  1  0  0  0  0
 10 11  1  0  0  0  0
 10 12  1  0  0  0  0
 10 13  1  0  0  0  0
 13 14  1  0  0  0  0
 13 15  1  0  0  0  0
 15 16  1  0  0  0  0
 15 17  1  0  0  0  0
  1 18  1  0  0  0  0
 15 18  1  0  0  0  0
 18 19  1  0  0  0  0
 18 20  1  0  0  0  0
 13 21  1  0  0  0  0
 21 22  1  0  0  0  0
M  END
> <VConfSearch Rank>
891

> <Conf_Id>
76

> <Delta U+W>
-3.175

> <U+W>
3.248

> <U>
5.336

> <W>
-2.088

> <W(PB)>
-4.098

> <W(SA)>
2.010

> <Valence>
12.390

> <Coulomb>
-9.270

> <VdW>
2.216

> <VdW6>
-8.967

> <VdW12>
11.183

> <Bond>
0.218

> <Angle>
2.426

> <Pdih>
9.745

> <Idih>
0.000

> <Tether>
0.000

$$$$
VeraChem MOL file


 22 22  0  0  0  0  0  0  0  0999 V2000     
   20.8700   20.7869   21.5198 C   0  0  0  0  0  0  0  0  0  0  0  0
   20.7953   21.8824   21.5547 H   0  0  0  0  0  0  0  0  0  0  0  0
   21.5774   20.5621   20.7099 H   0  0  0  0  0  0  0  0  0  0  0  0
   19.4805   20.2187   21.1442 C   0  0  0  0  0  0  0  0  0  0  0  0
   18.6962   20.8287   21.6124 H   0  0  0  0  0  0  0  0  0  0  0  0
   19.3436   20.3449   20.0616 H   0  0  0  0  0  0  0  0  0  0  0  0
   19.2616   18.7317   21.5082 C   0  0  0  0  0  0  0  0  0  0  0  0
   20.1803   18.1494   21.3542 H   0  0  0  0  0  0  0  0  0  0  0  0
   18.5181   18.3167   20.8144 H   0  0  0  0  0  0  0  0  0  0  0  0
   18.7221   18.5395   22.9483 C   0  0  0  0  0  0  0  0  0  0  0  0
   17.8481   19.1868   23.0955 H   0  0  0  0  0  0  0  0  0  0  0  0
   18.3481   17.5121   23.0481 H   0  0  0  0  0  0  0  0  0  0  0  0
   19.7280   18.7935   24.0941 C   0  0  0  0  0  0  0  0  0  0  0  0
   19.1496   18.7949   25.0293 H   0  0  0  0  0  0  0  0  0  0  0  0
   20.4815   20.1454   24.0221 C   0  0  0  0  0  0  0  0  0  0  0  0
   19.7602   20.9724   23.9965 H   0  0  0  0  0  0  0  0  0  0  0  0
   21.0362   20.2656   24.9617 H   0  0  0  0  0  0  0  0  0  0  0  0
   21.4840   20.2794   22.8464 C   0  0  0  0  0  0  0  0  0  0  0  0
   22.2799   20.9777   23.1383 H   0  0  0  0  0  0  0  0  0  0  0  0
   21.9888   19.3204   22.6705 H   0  0  0  0  0  0  0  0  0  0  0  0
   20.6584   17.7168   24.1497 O   0  0  0  0  0  0  0  0  0  0  0  0
   21.3041   17.9421   24.8502 H   0  0  0  0  0  0  0  0  0  0  0  0
  1  2  1  0  0  0  0
  1  3  1  0  0  0  0
  1  4  1  0  0  0  0
  4  5  1  0  0  0  0
  4  6  1  0  0  0  0
  4  7  1  0  0  0  0
  7  8  1  0  0  0  0
  7  9  1  0  0  0  0
  7 10  1  0  0  0  0
 10 11  1  0  0  0  0
 10 12  1  0  0  0  0
 10 13  1  0  0  0  0
 13 14  1  0  0  0  0
 13 15  1  0  0  0  0
 15 16  1  0  0  0  0
 15 17  1  0  0  0  0
  1 18  1  0  0  0  0
 15 18  1  0  0  0  0
 18 19  1  0  0  0  0
 18 20  1  0  0  0  0
 13 21  1  0  0  0  0
 21 22  1  0  0  0  0
M  END
> <VConfSearch Rank>
892

> <Conf_Id>
95

> <Delta U+W>
-2.289

> <U+W>
4.134

> <U>
6.373

> <W>
-2.240

> <W(PB)>
-4.254

> <W(SA)>
2.015

> <Valence>
12.093

> <Coulomb>
-8.058

> <VdW>
2.339

> <VdW6>
-9.683

> <VdW12>
12.022

> <Bond>
0.268

> <Angle>
3.005

> <Pdih>
8.820

> <Idih>
0.000

> <Tether>
0.000

$$$$
VeraChem MOL file


 22 22  0  0  0  0  0  0  0  0999 V2000     
   20.6970   17.8437   22.9114 C   0  0  0  0  0  0  0  0  0  0  0  0
   20.1142   16.9148   22.9779 H   0  0  0  0  0  0  0  0  0  0  0  0
   21.7513   17.5370   22.9467 H   0  0  0  0  0  0  0  0  0  0  0  0
   20.3830   18.7024   24.1597 C   0  0  0  0  0  0  0  0  0  0  0  0
   19.3257   18.5804   24.4312 H   0  0  0  0  0  0  0  0  0  0  0  0
   20.9521   18.2928   25.0053 H   0  0  0  0  0  0  0  0  0  0  0  0
   20.7077   20.2078   24.0181 C   0  0  0  0  0  0  0  0  0  0  0  0
   21.6282   20.3586   23.4378 H   0  0  0  0  0  0  0  0  0  0  0  0
   20.9103   20.6079   25.0208 H   0  0  0  0  0  0  0  0  0  0  0  0
   19.5329   21.0183   23.4148 C   0  0  0  0  0  0  0  0  0  0  0  0
   18.6127   20.7791   23.9634 H   0  0  0  0  0  0  0  0  0  0  0  0
   19.7120   22.0856   23.5984 H   0  0  0  0  0  0  0  0  0  0  0  0
   19.2732   20.8210   21.9037 C   0  0  0  0  0  0  0  0  0  0  0  0
   18.3184   21.3175   21.6780 H   0  0  0  0  0  0  0  0  0  0  0  0
   19.1375   19.3469   21.4466 C   0  0  0  0  0  0  0  0  0  0  0  0
   18.3301   18.8547   22.0036 H   0  0  0  0  0  0  0  0  0  0  0  0
   18.8131   19.3611   20.3981 H   0  0  0  0  0  0  0  0  0  0  0  0
   20.4376   18.5060   21.5372 C   0  0  0  0  0  0  0  0  0  0  0  0
   20.3960   17.7100   20.7816 H   0  0  0  0  0  0  0  0  0  0  0  0
   21.3018   19.1238   21.2597 H   0  0  0  0  0  0  0  0  0  0  0  0
   20.2985   21.4718   21.1594 O   0  0  0  0  0  0  0  0  0  0  0  0
   20.3532   22.3887   21.4979 H   0  0  0  0  0  0  0  0  0  0  0  0
  1  2  1  0  0  0  0
  1  3  1  0  0  0  0
  1  4  1  0  0  0  0
  4  5  1  0  0  0  0
  4  6  1  0  0  0  0
  4  7  1  0  0  0  0
  7  8  1  0  0  0  0
  7  9  1  0  0  0  0
  7 10  1  0  0  0  0
 10 11  1  0  0  0  0
 10 12  1  0  0  0  0
 10 13  1  0  0  0  0
 13 14  1  0  0  0  0
 13 15  1  0  0  0  0
 15 16  1  0  0  0  0
 15 17  1  0  0  0  0
  1 18  1  0  0  0  0
 15 18  1  0  0  0  0
 18 19  1  0  0  0  0
 18 20  1  0  0  0  0
 13 21  1  0  0  0  0
 21 22  1  0  0  0  0
M  END
> <VConfSearch Rank>
893

> <Conf_Id>
41

> <Delta U+W>
-2.114

> <U+W>
4.310

> <U>
6.598

> <W>
-2.289

> <W(PB)>
-4.294

> <W(SA)>
2.005

> <Valence>
12.082

> <Coulomb>
-7.801

> <VdW>
2.317

> <VdW6>
-9.658

> <VdW12>
11.975

> <Bond>
0.267

> <Angle>
3.051

> <Pdih>
8.764

> <Idih>
0.000

> <Tether>
0.000

$$$$
VeraChem MOL file


 22 22  0  0  0  0  0  0  0  0999 V2000     
   21.5260   19.8898   21.9548 C   0  0  0  0  0  0  0  0  0  0  0  0
   22.3515   20.3428   21.3892 H   0  0  0  0  0  0  0  0  0  0  0  0
   21.9767   19.1147   22.5898 H   0  0  0  0  0  0  0  0  0  0  0  0
   20.5444   19.2622   20.9399 C   0  0  0  0  0  0  0  0  0  0  0  0
   20.0590   20.0575   20.3581 H   0  0  0  0  0  0  0  0  0  0  0  0
   21.1197   18.6683   20.2167 H   0  0  0  0  0  0  0  0  0  0  0  0
   19.4664   18.3503   21.5656 C   0  0  0  0  0  0  0  0  0  0  0  0
   19.9411   17.4440   21.9646 H   0  0  0  0  0  0  0  0  0  0  0  0
   18.8055   18.0053   20.7592 H   0  0  0  0  0  0  0  0  0  0  0  0
   18.5922   19.0182   22.6615 C   0  0  0  0  0  0  0  0  0  0  0  0
   18.1794   19.9644   22.2892 H   0  0  0  0  0  0  0  0  0  0  0  0
   17.7268   18.3667   22.8386 H   0  0  0  0  0  0  0  0  0  0  0  0
   19.2795   19.2471   24.0323 C   0  0  0  0  0  0  0  0  0  0  0  0
   18.4758   19.4142   24.7640 H   0  0  0  0  0  0  0  0  0  0  0  0
   20.2104   20.4841   24.1245 C   0  0  0  0  0  0  0  0  0  0  0  0
   19.6287   21.3151   24.5442 H   0  0  0  0  0  0  0  0  0  0  0  0
   20.9995   20.2838   24.8612 H   0  0  0  0  0  0  0  0  0  0  0  0
   20.8698   20.9902   22.8176 C   0  0  0  0  0  0  0  0  0  0  0  0
   20.1338   21.5431   22.2183 H   0  0  0  0  0  0  0  0  0  0  0  0
   21.6379   21.7259   23.0923 H   0  0  0  0  0  0  0  0  0  0  0  0
   19.9917   18.0798   24.4337 O   0  0  0  0  0  0  0  0  0  0  0  0
   20.3682   18.2682   25.3173 H   0  0  0  0  0  0  0  0  0  0  0  0
  1  2  1  0  0  0  0
  1  3  1  0  0  0  0
  1  4  1  0  0  0  0
  4  5  1  0  0  0  0
  4  6  1  0  0  0  0
  4  7  1  0  0  0  0
  7  8  1  0  0  0  0
  7  9  1  0  0  0  0
  7 10  1  0  0  0  0
 10 11  1  0  0  0  0
 10 12  1  0  0  0  0
 10 13  1  0  0  0  0
 13 14  1  0  0  0  0
 13 15  1  0  0  0  0
 15 16  1  0  0  0  0
 15 17  1  0  0  0  0
  1 18  1  0  0  0  0
 15 18  1  0  0  0  0
 18 19  1  0  0  0  0
 18 20  1  0  0  0  0
 13 21  1  0  0  0  0
 21 22  1  0  0  0  0
M  END
> <VConfSearch Rank>
894

> <Conf_Id>
104

> <Delta U+W>
-1.172

> <U+W>
5.252

> <U>
7.482

> <W>
-2.230

> <W(PB)>
-4.220

> <W(SA)>
1.990

> <Valence>
12.309

> <Coulomb>
-7.084

> <VdW>
2.258

> <VdW6>
-9.770

> <VdW12>
12.028

> <Bond>
0.284

> <Angle>
3.491

> <Pdih>
8.535

> <Idih>
0.000

> <Tether>
0.000

$$$$
VeraChem MOL file


 22 22  0  0  0  0  0  0  0  0999 V2000     
   19.7271   18.6277   23.9617 C   0  0  0  0  0  0  0  0  0  0  0  0
   19.8113   17.7018   23.3767 H   0  0  0  0  0  0  0  0  0  0  0  0
   19.4574   18.3179   24.9806 H   0  0  0  0  0  0  0  0  0  0  0  0
   18.5865   19.5203   23.4215 C   0  0  0  0  0  0  0  0  0  0  0  0
   17.6298   19.1317   23.7970 H   0  0  0  0  0  0  0  0  0  0  0  0
   18.6746   20.5250   23.8552 H   0  0  0  0  0  0  0  0  0  0  0  0
   18.4833   19.6174   21.8783 C   0  0  0  0  0  0  0  0  0  0  0  0
   17.9894   20.5648   21.6217 H   0  0  0  0  0  0  0  0  0  0  0  0
   17.8034   18.8299   21.5253 H   0  0  0  0  0  0  0  0  0  0  0  0
   19.8020   19.4945   21.0678 C   0  0  0  0  0  0  0  0  0  0  0  0
   20.0811   18.4354   20.9949 H   0  0  0  0  0  0  0  0  0  0  0  0
   19.5965   19.8094   20.0364 H   0  0  0  0  0  0  0  0  0  0  0  0
   21.0212   20.2949   21.5805 C   0  0  0  0  0  0  0  0  0  0  0  0
   21.7076   20.4249   20.7315 H   0  0  0  0  0  0  0  0  0  0  0  0
   21.8087   19.5494   22.6816 C   0  0  0  0  0  0  0  0  0  0  0  0
   22.1058   18.5654   22.2962 H   0  0  0  0  0  0  0  0  0  0  0  0
   22.7461   20.0925   22.8590 H   0  0  0  0  0  0  0  0  0  0  0  0
   21.0879   19.3599   24.0393 C   0  0  0  0  0  0  0  0  0  0  0  0
   21.7533   18.7825   24.6955 H   0  0  0  0  0  0  0  0  0  0  0  0
   20.9598   20.3332   24.5319 H   0  0  0  0  0  0  0  0  0  0  0  0
   20.6180   21.5730   22.0475 O   0  0  0  0  0  0  0  0  0  0  0  0
   19.9529   21.3761   22.7369 H   0  0  0  0  0  0  0  0  0  0  0  0
  1  2  1  0  0  0  0
  1  3  1  0  0  0  0
  1  4  1  0  0  0  0
  4  5  1  0  0  0  0
  4  6  1  0  0  0  0
  4  7  1  0  0  0  0
  7  8  1  0  0  0  0
  7  9  1  0  0  0  0
  7 10  1  0  0  0  0
 10 11  1  0  0  0  0
 10 12  1  0  0  0  0
 10 13  1  0  0  0  0
 13 14  1  0  0  0  0
 13 15  1  0  0  0  0
 15 16  1  0  0  0  0
 15 17  1  0  0  0  0
  1 18  1  0  0  0  0
 15 18  1  0  0  0  0
 18 19  1  0  0  0  0
 18 20  1  0  0  0  0
 13 21  1  0  0  0  0
 21 22  1  0  0  0  0
M  END
> <VConfSearch Rank>
895

> <Conf_Id>
99

> <Delta U+W>
-3.852

> <U+W>
2.572

> <U>
3.922

> <W>
-1.350

> <W(PB)>
-3.345

> <W(SA)>
1.995

> <Valence>
12.571

> <Coulomb>
-10.581

> <VdW>
1.932

> <VdW6>
-10.483

> <VdW12>
12.415

> <Bond>
0.268

> <Angle>
3.728

> <Pdih>
8.575

> <Idih>
0.000

> <Tether>
0.000

$$$$
VeraChem MOL file


 22 22  0  0  0  0  0  0  0  0999 V2000     
   21.5098   19.3014   23.4744 C   0  0  0  0  0  0  0  0  0  0  0  0
   22.3008   18.6266   23.8297 H   0  0  0  0  0  0  0  0  0  0  0  0
   21.8277   20.3029   23.7935 H   0  0  0  0  0  0  0  0  0  0  0  0
   20.1861   18.9048   24.1917 C   0  0  0  0  0  0  0  0  0  0  0  0
   20.4043   18.0584   24.8575 H   0  0  0  0  0  0  0  0  0  0  0  0
   19.8605   19.7136   24.8594 H   0  0  0  0  0  0  0  0  0  0  0  0
   19.0120   18.4892   23.2689 C   0  0  0  0  0  0  0  0  0  0  0  0
   18.2191   18.0537   23.8921 H   0  0  0  0  0  0  0  0  0  0  0  0
   19.3289   17.6689   22.6130 H   0  0  0  0  0  0  0  0  0  0  0  0
   18.3783   19.6254   22.4191 C   0  0  0  0  0  0  0  0  0  0  0  0
   17.8679   19.1684   21.5616 H   0  0  0  0  0  0  0  0  0  0  0  0
   17.5837   20.0992   23.0108 H   0  0  0  0  0  0  0  0  0  0  0  0
   19.3040   20.7511   21.8954 C   0  0  0  0  0  0  0  0  0  0  0  0
   18.7293   21.3147   21.1465 H   0  0  0  0  0  0  0  0  0  0  0  0
   20.6146   20.2958   21.2074 C   0  0  0  0  0  0  0  0  0  0  0  0
   20.3685   19.9183   20.2066 H   0  0  0  0  0  0  0  0  0  0  0  0
   21.2270   21.1913   21.0371 H   0  0  0  0  0  0  0  0  0  0  0  0
   21.4901   19.2319   21.9260 C   0  0  0  0  0  0  0  0  0  0  0  0
   21.1903   18.2269   21.6041 H   0  0  0  0  0  0  0  0  0  0  0  0
   22.5204   19.3427   21.5611 H   0  0  0  0  0  0  0  0  0  0  0  0
   19.6077   21.6480   22.9521 O   0  0  0  0  0  0  0  0  0  0  0  0
   20.1149   21.1028   23.5864 H   0  0  0  0  0  0  0  0  0  0  0  0
  1  2  1  0  0  0  0
  1  3  1  0  0  0  0
  1  4  1  0  0  0  0
  4  5  1  0  0  0  0
  4  6  1  0  0  0  0
  4  7  1  0  0  0  0
  7  8  1  0  0  0  0
  7  9  1  0  0  0  0
  7 10  1  0  0  0  0
 10 11  1  0  0  0  0
 10 12  1  0  0  0  0
 10 13  1  0  0  0  0
 13 14  1  0  0  0  0
 13 15  1  0  0  0  0
 15 16  1  0  0  0  0
 15 17  1  0  0  0  0
  1 18  1  0  0  0  0
 15 18  1  0  0  0  0
 18 19  1  0  0  0  0
 18 20  1  0  0  0  0
 13 21  1  0  0  0  0
 21 22  1  0  0  0  0
M  END
> <VConfSearch Rank>
896

> <Conf_Id>
98

> <Delta U+W>
0.930

> <U+W>
7.353

> <U>
8.455

> <W>
-1.102

> <W(PB)>
-3.101

> <W(SA)>
2.000

> <Valence>
15.601

> <Coulomb>
-10.573

> <VdW>
3.427

> <VdW6>
-11.360

> <VdW12>
14.787

> <Bond>
0.471

> <Angle>
5.445

> <Pdih>
9.685

> <Idih>
0.000

> <Tether>
0.000

$$$$
VeraChem MOL file


 22 22  0  0  0  0  0  0  0  0999 V2000     
   21.3651   18.6000   22.1441 C   0  0  0  0  0  0  0  0  0  0  0  0
   21.2221   17.9941   23.0481 H   0  0  0  0  0  0  0  0  0  0  0  0
   22.1947   18.1199   21.6074 H   0  0  0  0  0  0  0  0  0  0  0  0
   21.7975   20.0352   22.5383 C   0  0  0  0  0  0  0  0  0  0  0  0
   22.7311   19.9536   23.1115 H   0  0  0  0  0  0  0  0  0  0  0  0
   22.0526   20.6039   21.6338 H   0  0  0  0  0  0  0  0  0  0  0  0
   20.7805   20.8507   23.3842 C   0  0  0  0  0  0  0  0  0  0  0  0
   20.2706   21.5885   22.7512 H   0  0  0  0  0  0  0  0  0  0  0  0
   21.3433   21.4465   24.1156 H   0  0  0  0  0  0  0  0  0  0  0  0
   19.7254   20.0015   24.1413 C   0  0  0  0  0  0  0  0  0  0  0  0
   20.2381   19.2250   24.7225 H   0  0  0  0  0  0  0  0  0  0  0  0
   19.2416   20.6414   24.8916 H   0  0  0  0  0  0  0  0  0  0  0  0
   18.6262   19.3388   23.2601 C   0  0  0  0  0  0  0  0  0  0  0  0
   18.5189   18.2929   23.5821 H   0  0  0  0  0  0  0  0  0  0  0  0
   18.8852   19.3499   21.7327 C   0  0  0  0  0  0  0  0  0  0  0  0
   17.9933   18.9693   21.2181 H   0  0  0  0  0  0  0  0  0  0  0  0
   18.9957   20.3839   21.3846 H   0  0  0  0  0  0  0  0  0  0  0  0
   20.0997   18.5131   21.2588 C   0  0  0  0  0  0  0  0  0  0  0  0
   19.8005   17.4581   21.1932 H   0  0  0  0  0  0  0  0  0  0  0  0
   20.3546   18.8182   20.2348 H   0  0  0  0  0  0  0  0  0  0  0  0
   17.3959   20.0164   23.4889 O   0  0  0  0  0  0  0  0  0  0  0  0
   16.7125   19.5448   22.9685 H   0  0  0  0  0  0  0  0  0  0  0  0
  1  2  1  0  0  0  0
  1  3  1  0  0  0  0
  1  4  1  0  0  0  0
  4  5  1  0  0  0  0
  4  6  1  0  0  0  0
  4  7  1  0  0  0  0
  7  8  1  0  0  0  0
  7  9  1  0  0  0  0
  7 10  1  0  0  0  0
 10 11  1  0  0  0  0
 10 12  1  0  0  0  0
 10 13  1  0  0  0  0
 13 14  1  0  0  0  0
 13 15  1  0  0  0  0
 15 16  1  0  0  0  0
 15 17  1  0  0  0  0
  1 18  1  0  0  0  0
 15 18  1  0  0  0  0
 18 19  1  0  0  0  0
 18 20  1  0  0  0  0
 13 21  1  0  0  0  0
 21 22  1  0  0  0  0
M  END
> <VConfSearch Rank>
897

> <Conf_Id>
141

> <Delta U+W>
0.000

> <U+W>
6.423

> <U>
8.781

> <W>
-2.358

> <W(PB)>
-4.373

> <W(SA)>
2.015

> <Valence>
13.328

> <Coulomb>
-8.387

> <VdW>
3.840

> <VdW6>
-9.744

> <VdW12>
13.584

> <Bond>
0.436

> <Angle>
3.478

> <Pdih>
9.415

> <Idih>
0.000

> <Tether>
0.000

$$$$
VeraChem MOL file


 22 22  0  0  0  0  0  0  0  0999 V2000     
   20.1147   18.2472   23.7464 C   0  0  0  0  0  0  0  0  0  0  0  0
   21.2046   18.3841   23.7499 H   0  0  0  0  0  0  0  0  0  0  0  0
   19.9098   17.4237   24.4441 H   0  0  0  0  0  0  0  0  0  0  0  0
   19.6158   17.8124   22.3472 C   0  0  0  0  0  0  0  0  0  0  0  0
   19.9776   16.7945   22.1475 H   0  0  0  0  0  0  0  0  0  0  0  0
   18.5195   17.7428   22.3569 H   0  0  0  0  0  0  0  0  0  0  0  0
   20.0602   18.7202   21.1773 C   0  0  0  0  0  0  0  0  0  0  0  0
   19.5900   18.3475   20.2570 H   0  0  0  0  0  0  0  0  0  0  0  0
   21.1430   18.6145   21.0244 H   0  0  0  0  0  0  0  0  0  0  0  0
   19.7064   20.2185   21.3412 C   0  0  0  0  0  0  0  0  0  0  0  0
   19.8590   20.7040   20.3683 H   0  0  0  0  0  0  0  0  0  0  0  0
   18.6421   20.3412   21.5802 H   0  0  0  0  0  0  0  0  0  0  0  0
   20.5836   20.9264   22.3981 C   0  0  0  0  0  0  0  0  0  0  0  0
   21.5800   20.4618   22.3855 H   0  0  0  0  0  0  0  0  0  0  0  0
   20.0336   20.8551   23.8409 C   0  0  0  0  0  0  0  0  0  0  0  0
   20.8611   21.0897   24.5229 H   0  0  0  0  0  0  0  0  0  0  0  0
   19.2898   21.6499   23.9860 H   0  0  0  0  0  0  0  0  0  0  0  0
   19.3970   19.5111   24.2752 C   0  0  0  0  0  0  0  0  0  0  0  0
   19.3840   19.4808   25.3733 H   0  0  0  0  0  0  0  0  0  0  0  0
   18.3426   19.4877   23.9680 H   0  0  0  0  0  0  0  0  0  0  0  0
   20.7125   22.2977   22.0429 O   0  0  0  0  0  0  0  0  0  0  0  0
   21.1324   22.3217   21.1576 H   0  0  0  0  0  0  0  0  0  0  0  0
  1  2  1  0  0  0  0
  1  3  1  0  0  0  0
  1  4  1  0  0  0  0
  4  5  1  0  0  0  0
  4  6  1  0  0  0  0
  4  7  1  0  0  0  0
  7  8  1  0  0  0  0
  7  9  1  0  0  0  0
  7 10  1  0  0  0  0
 10 11  1  0  0  0  0
 10 12  1  0  0  0  0
 10 13  1  0  0  0  0
 13 14  1  0  0  0  0
 13 15  1  0  0  0  0
 15 16  1  0  0  0  0
 15 17  1  0  0  0  0
  1 18  1  0  0  0  0
 15 18  1  0  0  0  0
 18 19  1  0  0  0  0
 18 20  1  0  0  0  0
 13 21  1  0  0  0  0
 21 22  1  0  0  0  0
M  END
> <VConfSearch Rank>
898

> <Conf_Id>
144

> <Delta U+W>
-3.291

> <U+W>
3.132

> <U>
5.411

> <W>
-2.279

> <W(PB)>
-4.300

> <W(SA)>
2.021

> <Valence>
11.909

> <Coulomb>
-8.733

> <VdW>
2.236

> <VdW6>
-8.936

> <VdW12>
11.172

> <Bond>
0.223

> <Angle>
2.457

> <Pdih>
9.228

> <Idih>
0.000

> <Tether>
0.000

$$$$
VeraChem MOL file


 22 22  0  0  0  0  0  0  0  0999 V2000     
   20.9400   19.0323   21.3374 C   0  0  0  0  0  0  0  0  0  0  0  0
   21.4156   18.4544   20.5333 H   0  0  0  0  0  0  0  0  0  0  0  0
   21.4307   20.0151   21.3365 H   0  0  0  0  0  0  0  0  0  0  0  0
   21.1916   18.2920   22.6718 C   0  0  0  0  0  0  0  0  0  0  0  0
   20.4519   17.4884   22.7892 H   0  0  0  0  0  0  0  0  0  0  0  0
   22.1662   17.7875   22.6200 H   0  0  0  0  0  0  0  0  0  0  0  0
   21.1865   19.1906   23.9321 C   0  0  0  0  0  0  0  0  0  0  0  0
   22.1791   19.6466   24.0499 H   0  0  0  0  0  0  0  0  0  0  0  0
   21.0482   18.5464   24.8113 H   0  0  0  0  0  0  0  0  0  0  0  0
   20.1294   20.3217   23.9647 C   0  0  0  0  0  0  0  0  0  0  0  0
   20.0162   20.6456   25.0082 H   0  0  0  0  0  0  0  0  0  0  0  0
   20.5177   21.1938   23.4229 H   0  0  0  0  0  0  0  0  0  0  0  0
   18.7468   19.9380   23.3911 C   0  0  0  0  0  0  0  0  0  0  0  0
   18.5353   18.8828   23.6150 H   0  0  0  0  0  0  0  0  0  0  0  0
   18.6517   20.1739   21.8666 C   0  0  0  0  0  0  0  0  0  0  0  0
   17.5954   20.1291   21.5691 H   0  0  0  0  0  0  0  0  0  0  0  0
   18.9900   21.1914   21.6315 H   0  0  0  0  0  0  0  0  0  0  0  0
   19.4365   19.1645   20.9954 C   0  0  0  0  0  0  0  0  0  0  0  0
   18.9589   18.1774   21.0626 H   0  0  0  0  0  0  0  0  0  0  0  0
   19.3419   19.4717   19.9450 H   0  0  0  0  0  0  0  0  0  0  0  0
   17.7620   20.7471   24.0201 O   0  0  0  0  0  0  0  0  0  0  0  0
   17.9845   21.6751   23.7999 H   0  0  0  0  0  0  0  0  0  0  0  0
  1  2  1  0  0  0  0
  1  3  1  0  0  0  0
  1  4  1  0  0  0  0
  4  5  1  0  0  0  0
  4  6  1  0  0  0  0
  4  7  1  0  0  0  0
  7  8  1  0  0  0  0
  7  9  1  0  0  0  0
  7 10  1  0  0  0  0
 10 11  1  0  0  0  0
 10 12  1  0  0  0  0
 10 13  1  0  0  0  0
 13 14  1  0  0  0  0
 13 15  1  0  0  0  0
 15 16  1  0  0  0  0
 15 17  1  0  0  0  0
  1 18  1  0  0  0  0
 15 18  1  0  0  0  0
 18 19  1  0  0  0  0
 18 20  1  0  0  0  0
 13 21  1  0  0  0  0
 21 22  1  0  0  0  0
M  END
> <VConfSearch Rank>
899

> <Conf_Id>
76

> <Delta U+W>
-3.175

> <U+W>
3.248

> <U>
5.336

> <W>
-2.088

> <W(PB)>
-4.098

> <W(SA)>
2.010

> <Valence>
12.390

> <Coulomb>
-9.270

> <VdW>
2.216

> <VdW6>
-8.967

> <VdW12>
11.183

> <Bond>
0.218

> <Angle>
2.426

> <Pdih>
9.745

> <Idih>
0.000

> <Tether>
0.000

$$$$
VeraChem MOL file


 22 22  0  0  0  0  0  0  0  0999 V2000     
   18.9818   18.0413   22.4970 C   0  0  0  0  0  0  0  0  0  0  0  0
   18.2811   17.6289   23.2358 H   0  0  0  0  0  0  0  0  0  0  0  0
   18.8546   17.4309   21.5925 H   0  0  0  0  0  0  0  0  0  0  0  0
   20.4202   17.8483   23.0339 C   0  0  0  0  0  0  0  0  0  0  0  0
   20.4265   17.9872   24.1235 H   0  0  0  0  0  0  0  0  0  0  0  0
   20.7060   16.8003   22.8699 H   0  0  0  0  0  0  0  0  0  0  0  0
   21.4868   18.7659   22.3922 C   0  0  0  0  0  0  0  0  0  0  0  0
   21.2887   18.9106   21.3214 H   0  0  0  0  0  0  0  0  0  0  0  0
   22.4579   18.2568   22.4563 H   0  0  0  0  0  0  0  0  0  0  0  0
   21.6201   20.1293   23.1172 C   0  0  0  0  0  0  0  0  0  0  0  0
   21.7450   19.9548   24.1935 H   0  0  0  0  0  0  0  0  0  0  0  0
   22.5492   20.6121   22.7871 H   0  0  0  0  0  0  0  0  0  0  0  0
   20.4619   21.1310   22.9066 C   0  0  0  0  0  0  0  0  0  0  0  0
   20.6198   21.9527   23.6199 H   0  0  0  0  0  0  0  0  0  0  0  0
   19.0442   20.5644   23.1706 C   0  0  0  0  0  0  0  0  0  0  0  0
   18.9863   20.1683   24.1927 H   0  0  0  0  0  0  0  0  0  0  0  0
   18.3403   21.4060   23.1392 H   0  0  0  0  0  0  0  0  0  0  0  0
   18.5640   19.4921   22.1583 C   0  0  0  0  0  0  0  0  0  0  0  0
   17.4674   19.5231   22.1041 H   0  0  0  0  0  0  0  0  0  0  0  0
   18.9120   19.7449   21.1482 H   0  0  0  0  0  0  0  0  0  0  0  0
   20.5376   21.6665   21.5892 O   0  0  0  0  0  0  0  0  0  0  0  0
   19.7609   22.2524   21.4813 H   0  0  0  0  0  0  0  0  0  0  0  0
  1  2  1  0  0  0  0
  1  3  1  0  0  0  0
  1  4  1  0  0  0  0
  4  5  1  0  0  0  0
  4  6  1  0  0  0  0
  4  7  1  0  0  0  0
  7  8  1  0  0  0  0
  7  9  1  0  0  0  0
  7 10  1  0  0  0  0
 10 11  1  0  0  0  0
 10 12  1  0  0  0  0
 10 13  1  0  0  0  0
 13 14  1  0  0  0  0
 13 15  1  0  0  0  0
 15 16  1  0  0  0  0
 15 17  1  0  0  0  0
  1 18  1  0  0  0  0
 15 18  1  0  0  0  0
 18 19  1  0  0  0  0
 18 20  1  0  0  0  0
 13 21  1  0  0  0  0
 21 22  1  0  0  0  0
M  END
> <VConfSearch Rank>
900

> <Conf_Id>
95

> <Delta U+W>
-2.289

> <U+W>
4.134

> <U>
6.373

> <W>
-2.240

> <W(PB)>
-4.254

> <W(SA)>
2.015

> <Valence>
12.093

> <Coulomb>
-8.058

> <VdW>
2.339

> <VdW6>
-9.683

> <VdW12>
12.022

> <Bond>
0.268

> <Angle>
3.005

> <Pdih>
8.820

> <Idih>
0.000

> <Tether>
0.000

$$$$
VeraChem MOL file


 22 22  0  0  0  0  0  0  0  0999 V2000     
   20.2086   21.0033   24.0247 C   0  0  0  0  0  0  0  0  0  0  0  0
   19.6928   21.0771   24.9918 H   0  0  0  0  0  0  0  0  0  0  0  0
   20.8803   21.8714   23.9783 H   0  0  0  0  0  0  0  0  0  0  0  0
   19.1513   21.1275   22.9017 C   0  0  0  0  0  0  0  0  0  0  0  0
   18.2227   20.6330   23.2171 H   0  0  0  0  0  0  0  0  0  0  0  0
   18.8953   22.1902   22.7927 H   0  0  0  0  0  0  0  0  0  0  0  0
   19.5884   20.5727   21.5259 C   0  0  0  0  0  0  0  0  0  0  0  0
   20.6500   20.7821   21.3367 H   0  0  0  0  0  0  0  0  0  0  0  0
   19.0283   21.1101   20.7488 H   0  0  0  0  0  0  0  0  0  0  0  0
   19.2846   19.0614   21.3672 C   0  0  0  0  0  0  0  0  0  0  0  0
   18.2395   18.8742   21.6461 H   0  0  0  0  0  0  0  0  0  0  0  0
   19.3532   18.7995   20.3034 H   0  0  0  0  0  0  0  0  0  0  0  0
   20.1901   18.0961   22.1659 C   0  0  0  0  0  0  0  0  0  0  0  0
   19.7389   17.0967   22.0844 H   0  0  0  0  0  0  0  0  0  0  0  0
   20.3195   18.4142   23.6767 C   0  0  0  0  0  0  0  0  0  0  0  0
   19.3265   18.4234   24.1440 H   0  0  0  0  0  0  0  0  0  0  0  0
   20.8606   17.5784   24.1388 H   0  0  0  0  0  0  0  0  0  0  0  0
   21.0791   19.7241   24.0123 C   0  0  0  0  0  0  0  0  0  0  0  0
   21.5401   19.6202   25.0037 H   0  0  0  0  0  0  0  0  0  0  0  0
   21.9172   19.8585   23.3158 H   0  0  0  0  0  0  0  0  0  0  0  0
   21.4799   18.0510   21.5631 O   0  0  0  0  0  0  0  0  0  0  0  0
   21.3398   17.8649   20.6123 H   0  0  0  0  0  0  0  0  0  0  0  0
  1  2  1  0  0  0  0
  1  3  1  0  0  0  0
  1  4  1  0  0  0  0
  4  5  1  0  0  0  0
  4  6  1  0  0  0  0
  4  7  1  0  0  0  0
  7  8  1  0  0  0  0
  7  9  1  0  0  0  0
  7 10  1  0  0  0  0
 10 11  1  0  0  0  0
 10 12  1  0  0  0  0
 10 13  1  0  0  0  0
 13 14  1  0  0  0  0
 13 15  1  0  0  0  0
 15 16  1  0  0  0  0
 15 17  1  0  0  0  0
  1 18  1  0  0  0  0
 15 18  1  0  0  0  0
 18 19  1  0  0  0  0
 18 20  1  0  0  0  0
 13 21  1  0  0  0  0
 21 22  1  0  0  0  0
M  END
> <VConfSearch Rank>
901

> <Conf_Id>
41

> <Delta U+W>
-2.114

> <U+W>
4.310

> <U>
6.598

> <W>
-2.289

> <W(PB)>
-4.294

> <W(SA)>
2.005

> <Valence>
12.082

> <Coulomb>
-7.801

> <VdW>
2.317

> <VdW6>
-9.658

> <VdW12>
11.975

> <Bond>
0.267

> <Angle>
3.051

> <Pdih>
8.764

> <Idih>
0.000

> <Tether>
0.000

$$$$
VeraChem MOL file


 22 22  0  0  0  0  0  0  0  0999 V2000     
   21.5313   19.7635   21.9179 C   0  0  0  0  0  0  0  0  0  0  0  0
   22.4747   20.1473   21.5064 H   0  0  0  0  0  0  0  0  0  0  0  0
   21.5780   18.6695   21.8265 H   0  0  0  0  0  0  0  0  0  0  0  0
   20.3756   20.3342   21.0659 C   0  0  0  0  0  0  0  0  0  0  0  0
   20.3070   21.4197   21.2196 H   0  0  0  0  0  0  0  0  0  0  0  0
   20.6207   20.1953   20.0042 H   0  0  0  0  0  0  0  0  0  0  0  0
   18.9985   19.6879   21.3327 C   0  0  0  0  0  0  0  0  0  0  0  0
   19.0078   18.6486   20.9784 H   0  0  0  0  0  0  0  0  0  0  0  0
   18.2561   20.2043   20.7096 H   0  0  0  0  0  0  0  0  0  0  0  0
   18.5193   19.7415   22.8088 C   0  0  0  0  0  0  0  0  0  0  0  0
   18.5832   20.7691   23.1885 H   0  0  0  0  0  0  0  0  0  0  0  0
   17.4517   19.4871   22.8207 H   0  0  0  0  0  0  0  0  0  0  0  0
   19.2304   18.7732   23.7889 C   0  0  0  0  0  0  0  0  0  0  0  0
   18.5877   18.6963   24.6780 H   0  0  0  0  0  0  0  0  0  0  0  0
   20.6215   19.2292   24.3008 C   0  0  0  0  0  0  0  0  0  0  0  0
   20.4796   19.7271   25.2688 H   0  0  0  0  0  0  0  0  0  0  0  0
   21.2305   18.3423   24.5197 H   0  0  0  0  0  0  0  0  0  0  0  0
   21.4438   20.1850   23.4014 C   0  0  0  0  0  0  0  0  0  0  0  0
   21.0420   21.2046   23.4750 H   0  0  0  0  0  0  0  0  0  0  0  0
   22.4614   20.2395   23.8116 H   0  0  0  0  0  0  0  0  0  0  0  0
   19.3327   17.4717   23.2174 O   0  0  0  0  0  0  0  0  0  0  0  0
   19.7503   16.8987   23.8920 H   0  0  0  0  0  0  0  0  0  0  0  0
  1  2  1  0  0  0  0
  1  3  1  0  0  0  0
  1  4  1  0  0  0  0
  4  5  1  0  0  0  0
  4  6  1  0  0  0  0
  4  7  1  0  0  0  0
  7  8  1  0  0  0  0
  7  9  1  0  0  0  0
  7 10  1  0  0  0  0
 10 11  1  0  0  0  0
 10 12  1  0  0  0  0
 10 13  1  0  0  0  0
 13 14  1  0  0  0  0
 13 15  1  0  0  0  0
 15 16  1  0  0  0  0
 15 17  1  0  0  0  0
  1 18  1  0  0  0  0
 15 18  1  0  0  0  0
 18 19  1  0  0  0  0
 18 20  1  0  0  0  0
 13 21  1  0  0  0  0
 21 22  1  0  0  0  0
M  END
> <VConfSearch Rank>
902

> <Conf_Id>
104

> <Delta U+W>
-1.172

> <U+W>
5.252

> <U>
7.482

> <W>
-2.230

> <W(PB)>
-4.220

> <W(SA)>
1.990

> <Valence>
12.309

> <Coulomb>
-7.084

> <VdW>
2.258

> <VdW6>
-9.770

> <VdW12>
12.028

> <Bond>
0.284

> <Angle>
3.491

> <Pdih>
8.535

> <Idih>
0.000

> <Tether>
0.000

$$$$
VeraChem MOL file


 22 22  0  0  0  0  0  0  0  0999 V2000     
   21.2864   19.6592   23.7672 C   0  0  0  0  0  0  0  0  0  0  0  0
   21.2849   20.7573   23.7922 H   0  0  0  0  0  0  0  0  0  0  0  0
   22.0903   19.3426   24.4457 H   0  0  0  0  0  0  0  0  0  0  0  0
   21.6298   19.1396   22.3524 C   0  0  0  0  0  0  0  0  0  0  0  0
   22.7180   19.1985   22.2122 H   0  0  0  0  0  0  0  0  0  0  0  0
   21.3933   18.0693   22.2908 H   0  0  0  0  0  0  0  0  0  0  0  0
   20.9610   19.8977   21.1779 C   0  0  0  0  0  0  0  0  0  0  0  0
   20.8943   19.2173   20.3178 H   0  0  0  0  0  0  0  0  0  0  0  0
   21.6331   20.7058   20.8583 H   0  0  0  0  0  0  0  0  0  0  0  0
   19.5654   20.5263   21.4396 C   0  0  0  0  0  0  0  0  0  0  0  0
   19.6932   21.4672   21.9904 H   0  0  0  0  0  0  0  0  0  0  0  0
   19.1373   20.8159   20.4711 H   0  0  0  0  0  0  0  0  0  0  0  0
   18.5276   19.6535   22.1819 C   0  0  0  0  0  0  0  0  0  0  0  0
   17.5320   20.0530   21.9407 H   0  0  0  0  0  0  0  0  0  0  0  0
   18.6758   19.7211   23.7186 C   0  0  0  0  0  0  0  0  0  0  0  0
   18.6165   20.7716   24.0317 H   0  0  0  0  0  0  0  0  0  0  0  0
   17.8035   19.2291   24.1685 H   0  0  0  0  0  0  0  0  0  0  0  0
   19.9571   19.0904   24.3181 C   0  0  0  0  0  0  0  0  0  0  0  0
   19.9359   19.2540   25.4042 H   0  0  0  0  0  0  0  0  0  0  0  0
   19.9338   18.0006   24.1835 H   0  0  0  0  0  0  0  0  0  0  0  0
   18.6031   18.3063   21.7418 O   0  0  0  0  0  0  0  0  0  0  0  0
   19.5317   18.0515   21.9121 H   0  0  0  0  0  0  0  0  0  0  0  0
  1  2  1  0  0  0  0
  1  3  1  0  0  0  0
  1  4  1  0  0  0  0
  4  5  1  0  0  0  0
  4  6  1  0  0  0  0
  4  7  1  0  0  0  0
  7  8  1  0  0  0  0
  7  9  1  0  0  0  0
  7 10  1  0  0  0  0
 10 11  1  0  0  0  0
 10 12  1  0  0  0  0
 10 13  1  0  0  0  0
 13 14  1  0  0  0  0
 13 15  1  0  0  0  0
 15 16  1  0  0  0  0
 15 17  1  0  0  0  0
  1 18  1  0  0  0  0
 15 18  1  0  0  0  0
 18 19  1  0  0  0  0
 18 20  1  0  0  0  0
 13 21  1  0  0  0  0
 21 22  1  0  0  0  0
M  END
> <VConfSearch Rank>
903

> <Conf_Id>
99

> <Delta U+W>
-3.852

> <U+W>
2.572

> <U>
3.922

> <W>
-1.350

> <W(PB)>
-3.345

> <W(SA)>
1.995

> <Valence>
12.571

> <Coulomb>
-10.581

> <VdW>
1.932

> <VdW6>
-10.483

> <VdW12>
12.415

> <Bond>
0.268

> <Angle>
3.728

> <Pdih>
8.575

> <Idih>
0.000

> <Tether>
0.000

$$$$
VeraChem MOL file


 22 22  0  0  0  0  0  0  0  0999 V2000     
   18.7215   19.0280   21.8835 C   0  0  0  0  0  0  0  0  0  0  0  0
   18.1068   18.9105   20.9804 H   0  0  0  0  0  0  0  0  0  0  0  0
   18.1775   18.4862   22.6687 H   0  0  0  0  0  0  0  0  0  0  0  0
   18.7842   20.5459   22.2241 C   0  0  0  0  0  0  0  0  0  0  0  0
   18.1965   21.0853   21.4685 H   0  0  0  0  0  0  0  0  0  0  0  0
   18.2708   20.7419   23.1749 H   0  0  0  0  0  0  0  0  0  0  0  0
   20.2001   21.1760   22.2593 C   0  0  0  0  0  0  0  0  0  0  0  0
   20.0921   22.2677   22.3146 H   0  0  0  0  0  0  0  0  0  0  0  0
   20.7087   20.9974   21.3038 H   0  0  0  0  0  0  0  0  0  0  0  0
   21.1157   20.7289   23.4326 C   0  0  0  0  0  0  0  0  0  0  0  0
   22.1585   20.9103   23.1421 H   0  0  0  0  0  0  0  0  0  0  0  0
   20.9330   21.3934   24.2876 H   0  0  0  0  0  0  0  0  0  0  0  0
   20.9951   19.2711   23.9408 C   0  0  0  0  0  0  0  0  0  0  0  0
   21.8593   19.0885   24.5954 H   0  0  0  0  0  0  0  0  0  0  0  0
   21.0096   18.1645   22.8575 C   0  0  0  0  0  0  0  0  0  0  0  0
   22.0399   18.0426   22.4993 H   0  0  0  0  0  0  0  0  0  0  0  0
   20.7598   17.2156   23.3507 H   0  0  0  0  0  0  0  0  0  0  0  0
   20.0827   18.3341   21.6218 C   0  0  0  0  0  0  0  0  0  0  0  0
   20.6207   18.8626   20.8251 H   0  0  0  0  0  0  0  0  0  0  0  0
   19.8884   17.3352   21.2080 H   0  0  0  0  0  0  0  0  0  0  0  0
   19.8297   19.1402   24.7395 O   0  0  0  0  0  0  0  0  0  0  0  0
   19.0954   19.3103   24.1159 H   0  0  0  0  0  0  0  0  0  0  0  0
  1  2  1  0  0  0  0
  1  3  1  0  0  0  0
  1  4  1  0  0  0  0
  4  5  1  0  0  0  0
  4  6  1  0  0  0  0
  4  7  1  0  0  0  0
  7  8  1  0  0  0  0
  7  9  1  0  0  0  0
  7 10  1  0  0  0  0
 10 11  1  0  0  0  0
 10 12  1  0  0  0  0
 10 13  1  0  0  0  0
 13 14  1  0  0  0  0
 13 15  1  0  0  0  0
 15 16  1  0  0  0  0
 15 17  1  0  0  0  0
  1 18  1  0  0  0  0
 15 18  1  0  0  0  0
 18 19  1  0  0  0  0
 18 20  1  0  0  0  0
 13 21  1  0  0  0  0
 21 22  1  0  0  0  0
M  END
> <VConfSearch Rank>
904

> <Conf_Id>
98

> <Delta U+W>
0.930

> <U+W>
7.353

> <U>
8.455

> <W>
-1.102

> <W(PB)>
-3.101

> <W(SA)>
2.000

> <Valence>
15.601

> <Coulomb>
-10.573

> <VdW>
3.427

> <VdW6>
-11.360

> <VdW12>
14.787

> <Bond>
0.471

> <Angle>
5.445

> <Pdih>
9.685

> <Idih>
0.000

> <Tether>
0.000

$$$$
VeraChem MOL file


 22 22  0  0  0  0  0  0  0  0999 V2000     
   18.6861   18.4802   22.9312 C   0  0  0  0  0  0  0  0  0  0  0  0
   19.3877   17.6458   22.8030 H   0  0  0  0  0  0  0  0  0  0  0  0
   17.7262   18.0093   23.1831 H   0  0  0  0  0  0  0  0  0  0  0  0
   18.5258   19.2406   21.5902 C   0  0  0  0  0  0  0  0  0  0  0  0
   18.1552   18.5231   20.8455 H   0  0  0  0  0  0  0  0  0  0  0  0
   17.7379   19.9995   21.6898 H   0  0  0  0  0  0  0  0  0  0  0  0
   19.8087   19.9081   21.0218 C   0  0  0  0  0  0  0  0  0  0  0  0
   19.7802   20.9909   21.1999 H   0  0  0  0  0  0  0  0  0  0  0  0
   19.7949   19.8011   19.9286 H   0  0  0  0  0  0  0  0  0  0  0  0
   21.1441   19.3303   21.5609 C   0  0  0  0  0  0  0  0  0  0  0  0
   21.1401   18.2401   21.4382 H   0  0  0  0  0  0  0  0  0  0  0  0
   21.9587   19.6835   20.9143 H   0  0  0  0  0  0  0  0  0  0  0  0
   21.4876   19.6772   23.0392 C   0  0  0  0  0  0  0  0  0  0  0  0
   21.8203   18.7540   23.5353 H   0  0  0  0  0  0  0  0  0  0  0  0
   20.3359   20.2875   23.8767 C   0  0  0  0  0  0  0  0  0  0  0  0
   20.7319   20.5988   24.8520 H   0  0  0  0  0  0  0  0  0  0  0  0
   19.9850   21.2122   23.4030 H   0  0  0  0  0  0  0  0  0  0  0  0
   19.1304   19.3485   24.1317 C   0  0  0  0  0  0  0  0  0  0  0  0
   19.3729   18.6778   24.9673 H   0  0  0  0  0  0  0  0  0  0  0  0
   18.2808   19.9568   24.4705 H   0  0  0  0  0  0  0  0  0  0  0  0
   22.5607   20.6119   23.0452 O   0  0  0  0  0  0  0  0  0  0  0  0
   22.7941   20.7683   23.9839 H   0  0  0  0  0  0  0  0  0  0  0  0
  1  2  1  0  0  0  0
  1  3  1  0  0  0  0
  1  4  1  0  0  0  0
  4  5  1  0  0  0  0
  4  6  1  0  0  0  0
  4  7  1  0  0  0  0
  7  8  1  0  0  0  0
  7  9  1  0  0  0  0
  7 10  1  0  0  0  0
 10 11  1  0  0  0  0
 10 12  1  0  0  0  0
 10 13  1  0  0  0  0
 13 14  1  0  0  0  0
 13 15  1  0  0  0  0
 15 16  1  0  0  0  0
 15 17  1  0  0  0  0
  1 18  1  0  0  0  0
 15 18  1  0  0  0  0
 18 19  1  0  0  0  0
 18 20  1  0  0  0  0
 13 21  1  0  0  0  0
 21 22  1  0  0  0  0
M  END
> <VConfSearch Rank>
905

> <Conf_Id>
141

> <Delta U+W>
0.000

> <U+W>
6.423

> <U>
8.781

> <W>
-2.358

> <W(PB)>
-4.373

> <W(SA)>
2.015

> <Valence>
13.328

> <Coulomb>
-8.387

> <VdW>
3.840

> <VdW6>
-9.744

> <VdW12>
13.584

> <Bond>
0.436

> <Angle>
3.478

> <Pdih>
9.415

> <Idih>
0.000

> <Tether>
0.000

$$$$
VeraChem MOL file


 22 22  0  0  0  0  0  0  0  0999 V2000     
   21.1258   20.9186   22.8718 C   0  0  0  0  0  0  0  0  0  0  0  0
   20.2853   21.6253   22.8430 H   0  0  0  0  0  0  0  0  0  0  0  0
   22.0238   21.5222   23.0617 H   0  0  0  0  0  0  0  0  0  0  0  0
   21.3098   20.2212   21.5023 C   0  0  0  0  0  0  0  0  0  0  0  0
   21.6586   20.9663   20.7743 H   0  0  0  0  0  0  0  0  0  0  0  0
   22.1151   19.4778   21.5775 H   0  0  0  0  0  0  0  0  0  0  0  0
   20.0420   19.5456   20.9308 C   0  0  0  0  0  0  0  0  0  0  0  0
   20.3175   19.0334   19.9988 H   0  0  0  0  0  0  0  0  0  0  0  0
   19.3146   20.3176   20.6446 H   0  0  0  0  0  0  0  0  0  0  0  0
   19.3638   18.5229   21.8749 C   0  0  0  0  0  0  0  0  0  0  0  0
   18.6346   17.9560   21.2813 H   0  0  0  0  0  0  0  0  0  0  0  0
   20.0946   17.7904   22.2415 H   0  0  0  0  0  0  0  0  0  0  0  0
   18.6326   19.1966   23.0577 C   0  0  0  0  0  0  0  0  0  0  0  0
   18.2427   20.1656   22.7144 H   0  0  0  0  0  0  0  0  0  0  0  0
   19.5159   19.4426   24.3022 C   0  0  0  0  0  0  0  0  0  0  0  0
   19.0079   20.1890   24.9265 H   0  0  0  0  0  0  0  0  0  0  0  0
   19.5585   18.5254   24.9046 H   0  0  0  0  0  0  0  0  0  0  0  0
   20.9669   19.9178   24.0402 C   0  0  0  0  0  0  0  0  0  0  0  0
   21.3435   20.3825   24.9617 H   0  0  0  0  0  0  0  0  0  0  0  0
   21.6129   19.0467   23.8652 H   0  0  0  0  0  0  0  0  0  0  0  0
   17.5394   18.3749   23.4487 O   0  0  0  0  0  0  0  0  0  0  0  0
   16.9534   18.2941   22.6672 H   0  0  0  0  0  0  0  0  0  0  0  0
  1  2  1  0  0  0  0
  1  3  1  0  0  0  0
  1  4  1  0  0  0  0
  4  5  1  0  0  0  0
  4  6  1  0  0  0  0
  4  7  1  0  0  0  0
  7  8  1  0  0  0  0
  7  9  1  0  0  0  0
  7 10  1  0  0  0  0
 10 11  1  0  0  0  0
 10 12  1  0  0  0  0
 10 13  1  0  0  0  0
 13 14  1  0  0  0  0
 13 15  1  0  0  0  0
 15 16  1  0  0  0  0
 15 17  1  0  0  0  0
  1 18  1  0  0  0  0
 15 18  1  0  0  0  0
 18 19  1  0  0  0  0
 18 20  1  0  0  0  0
 13 21  1  0  0  0  0
 21 22  1  0  0  0  0
M  END
> <VConfSearch Rank>
906

> <Conf_Id>
144

> <Delta U+W>
-3.291

> <U+W>
3.132

> <U>
5.411

> <W>
-2.279

> <W(PB)>
-4.300

> <W(SA)>
2.021

> <Valence>
11.909

> <Coulomb>
-8.733

> <VdW>
2.236

> <VdW6>
-8.936

> <VdW12>
11.172

> <Bond>
0.223

> <Angle>
2.457

> <Pdih>
9.228

> <Idih>
0.000

> <Tether>
0.000

$$$$
VeraChem MOL file


 22 22  0  0  0  0  0  0  0  0999 V2000     
   20.4647   18.0021   22.0854 C   0  0  0  0  0  0  0  0  0  0  0  0
   21.0599   17.1181   21.8188 H   0  0  0  0  0  0  0  0  0  0  0  0
   19.4295   17.7683   21.8019 H   0  0  0  0  0  0  0  0  0  0  0  0
   21.0010   19.2031   21.2717 C   0  0  0  0  0  0  0  0  0  0  0  0
   21.8816   19.6229   21.7769 H   0  0  0  0  0  0  0  0  0  0  0  0
   21.3658   18.8401   20.3011 H   0  0  0  0  0  0  0  0  0  0  0  0
   19.9710   20.3269   21.0038 C   0  0  0  0  0  0  0  0  0  0  0  0
   19.3691   20.0580   20.1250 H   0  0  0  0  0  0  0  0  0  0  0  0
   20.5209   21.2352   20.7219 H   0  0  0  0  0  0  0  0  0  0  0  0
   19.0040   20.6635   22.1657 C   0  0  0  0  0  0  0  0  0  0  0  0
   18.5796   21.6579   21.9720 H   0  0  0  0  0  0  0  0  0  0  0  0
   18.1553   19.9677   22.1413 H   0  0  0  0  0  0  0  0  0  0  0  0
   19.6430   20.6407   23.5724 C   0  0  0  0  0  0  0  0  0  0  0  0
   20.6841   20.9881   23.5096 H   0  0  0  0  0  0  0  0  0  0  0  0
   19.6028   19.2373   24.2188 C   0  0  0  0  0  0  0  0  0  0  0  0
   19.8304   19.3362   25.2886 H   0  0  0  0  0  0  0  0  0  0  0  0
   18.5823   18.8368   24.1616 H   0  0  0  0  0  0  0  0  0  0  0  0
   20.5865   18.2073   23.6145 C   0  0  0  0  0  0  0  0  0  0  0  0
   21.6163   18.4985   23.8626 H   0  0  0  0  0  0  0  0  0  0  0  0
   20.4206   17.2419   24.1117 H   0  0  0  0  0  0  0  0  0  0  0  0
   18.9128   21.5276   24.4092 O   0  0  0  0  0  0  0  0  0  0  0  0
   17.9949   21.1874   24.4386 H   0  0  0  0  0  0  0  0  0  0  0  0
  1  2  1  0  0  0  0
  1  3  1  0  0  0  0
  1  4  1  0  0  0  0
  4  5  1  0  0  0  0
  4  6  1  0  0  0  0
  4  7  1  0  0  0  0
  7  8  1  0  0  0  0
  7  9  1  0  0  0  0
  7 10  1  0  0  0  0
 10 11  1  0  0  0  0
 10 12  1  0  0  0  0
 10 13  1  0  0  0  0
 13 14  1  0  0  0  0
 13 15  1  0  0  0  0
 15 16  1  0  0  0  0
 15 17  1  0  0  0  0
  1 18  1  0  0  0  0
 15 18  1  0  0  0  0
 18 19  1  0  0  0  0
 18 20  1  0  0  0  0
 13 21  1  0  0  0  0
 21 22  1  0  0  0  0
M  END
> <VConfSearch Rank>
907

> <Conf_Id>
76

> <Delta U+W>
-3.175

> <U+W>
3.248

> <U>
5.336

> <W>
-2.088

> <W(PB)>
-4.098

> <W(SA)>
2.010

> <Valence>
12.390

> <Coulomb>
-9.270

> <VdW>
2.216

> <VdW6>
-8.967

> <VdW12>
11.183

> <Bond>
0.218

> <Angle>
2.426

> <Pdih>
9.745

> <Idih>
0.000

> <Tether>
0.000

$$$$
VeraChem MOL file


 22 22  0  0  0  0  0  0  0  0999 V2000     
   19.5775   21.2525   22.0525 C   0  0  0  0  0  0  0  0  0  0  0  0
   19.6330   22.2067   22.5940 H   0  0  0  0  0  0  0  0  0  0  0  0
   19.2526   21.5061   21.0342 H   0  0  0  0  0  0  0  0  0  0  0  0
   18.4906   20.3783   22.7226 C   0  0  0  0  0  0  0  0  0  0  0  0
   18.5085   20.5397   23.8089 H   0  0  0  0  0  0  0  0  0  0  0  0
   17.5092   20.7413   22.3881 H   0  0  0  0  0  0  0  0  0  0  0  0
   18.5938   18.8641   22.4257 C   0  0  0  0  0  0  0  0  0  0  0  0
   18.9146   18.6870   21.3901 H   0  0  0  0  0  0  0  0  0  0  0  0
   17.5884   18.4304   22.5116 H   0  0  0  0  0  0  0  0  0  0  0  0
   19.5161   18.1185   23.4235 C   0  0  0  0  0  0  0  0  0  0  0  0
   19.2171   18.3710   24.4489 H   0  0  0  0  0  0  0  0  0  0  0  0
   19.3412   17.0393   23.3228 H   0  0  0  0  0  0  0  0  0  0  0  0
   21.0333   18.3714   23.2710 C   0  0  0  0  0  0  0  0  0  0  0  0
   21.5191   17.9250   24.1507 H   0  0  0  0  0  0  0  0  0  0  0  0
   21.4519   19.8624   23.2267 C   0  0  0  0  0  0  0  0  0  0  0  0
   21.0981   20.3752   24.1305 H   0  0  0  0  0  0  0  0  0  0  0  0
   22.5478   19.9002   23.2749 H   0  0  0  0  0  0  0  0  0  0  0  0
   20.9948   20.6380   21.9638 C   0  0  0  0  0  0  0  0  0  0  0  0
   21.7048   21.4543   21.7740 H   0  0  0  0  0  0  0  0  0  0  0  0
   21.0556   19.9888   21.0805 H   0  0  0  0  0  0  0  0  0  0  0  0
   21.5081   17.6949   22.1113 O   0  0  0  0  0  0  0  0  0  0  0  0
   22.4560   17.9229   22.0239 H   0  0  0  0  0  0  0  0  0  0  0  0
  1  2  1  0  0  0  0
  1  3  1  0  0  0  0
  1  4  1  0  0  0  0
  4  5  1  0  0  0  0
  4  6  1  0  0  0  0
  4  7  1  0  0  0  0
  7  8  1  0  0  0  0
  7  9  1  0  0  0  0
  7 10  1  0  0  0  0
 10 11  1  0  0  0  0
 10 12  1  0  0  0  0
 10 13  1  0  0  0  0
 13 14  1  0  0  0  0
 13 15  1  0  0  0  0
 15 16  1  0  0  0  0
 15 17  1  0  0  0  0
  1 18  1  0  0  0  0
 15 18  1  0  0  0  0
 18 19  1  0  0  0  0
 18 20  1  0  0  0  0
 13 21  1  0  0  0  0
 21 22  1  0  0  0  0
M  END
> <VConfSearch Rank>
908

> <Conf_Id>
95

> <Delta U+W>
-2.289

> <U+W>
4.134

> <U>
6.373

> <W>
-2.240

> <W(PB)>
-4.254

> <W(SA)>
2.015

> <Valence>
12.093

> <Coulomb>
-8.058

> <VdW>
2.339

> <VdW6>
-9.683

> <VdW12>
12.022

> <Bond>
0.268

> <Angle>
3.005

> <Pdih>
8.820

> <Idih>
0.000

> <Tether>
0.000

$$$$
VeraChem MOL file


 22 22  0  0  0  0  0  0  0  0999 V2000     
   18.1389   19.5309   22.6017 C   0  0  0  0  0  0  0  0  0  0  0  0
   17.4233   20.3603   22.5203 H   0  0  0  0  0  0  0  0  0  0  0  0
   17.5360   18.6131   22.5707 H   0  0  0  0  0  0  0  0  0  0  0  0
   18.8357   19.6263   23.9800 C   0  0  0  0  0  0  0  0  0  0  0  0
   18.9854   20.6825   24.2419 H   0  0  0  0  0  0  0  0  0  0  0  0
   18.1449   19.2314   24.7374 H   0  0  0  0  0  0  0  0  0  0  0  0
   20.1822   18.8734   24.0871 C   0  0  0  0  0  0  0  0  0  0  0  0
   20.1501   17.9287   23.5274 H   0  0  0  0  0  0  0  0  0  0  0  0
   20.3360   18.5993   25.1396 H   0  0  0  0  0  0  0  0  0  0  0  0
   21.3881   19.7398   23.6438 C   0  0  0  0  0  0  0  0  0  0  0  0
   21.3420   20.7088   24.1574 H   0  0  0  0  0  0  0  0  0  0  0  0
   22.3113   19.2650   24.0004 H   0  0  0  0  0  0  0  0  0  0  0  0
   21.5253   19.9914   22.1247 C   0  0  0  0  0  0  0  0  0  0  0  0
   22.3092   20.7520   21.9982 H   0  0  0  0  0  0  0  0  0  0  0  0
   20.2508   20.5329   21.4299 C   0  0  0  0  0  0  0  0  0  0  0  0
   19.9320   21.4679   21.9081 H   0  0  0  0  0  0  0  0  0  0  0  0
   20.5306   20.8016   20.4031 H   0  0  0  0  0  0  0  0  0  0  0  0
   19.0635   19.5374   21.3610 C   0  0  0  0  0  0  0  0  0  0  0  0
   18.4493   19.7814   20.4838 H   0  0  0  0  0  0  0  0  0  0  0  0
   19.4384   18.5216   21.1785 H   0  0  0  0  0  0  0  0  0  0  0  0
   21.9605   18.7953   21.4853 O   0  0  0  0  0  0  0  0  0  0  0  0
   22.7530   18.4888   21.9713 H   0  0  0  0  0  0  0  0  0  0  0  0
  1  2  1  0  0  0  0
  1  3  1  0  0  0  0
  1  4  1  0  0  0  0
  4  5  1  0  0  0  0
  4  6  1  0  0  0  0
  4  7  1  0  0  0  0
  7  8  1  0  0  0  0
  7  9  1  0  0  0  0
  7 10  1  0  0  0  0
 10 11  1  0  0  0  0
 10 12  1  0  0  0  0
 10 13  1  0  0  0  0
 13 14  1  0  0  0  0
 13 15  1  0  0  0  0
 15 16  1  0  0  0  0
 15 17  1  0  0  0  0
  1 18  1  0  0  0  0
 15 18  1  0  0  0  0
 18 19  1  0  0  0  0
 18 20  1  0  0  0  0
 13 21  1  0  0  0  0
 21 22  1  0  0  0  0
M  END
> <VConfSearch Rank>
909

> <Conf_Id>
41

> <Delta U+W>
-2.114

> <U+W>
4.310

> <U>
6.598

> <W>
-2.289

> <W(PB)>
-4.294

> <W(SA)>
2.005

> <Valence>
12.082

> <Coulomb>
-7.801

> <VdW>
2.317

> <VdW6>
-9.658

> <VdW12>
11.975

> <Bond>
0.267

> <Angle>
3.051

> <Pdih>
8.764

> <Idih>
0.000

> <Tether>
0.000

$$$$
VeraChem MOL file


 22 22  0  0  0  0  0  0  0  0999 V2000     
   20.5094   21.0739   22.2273 C   0  0  0  0  0  0  0  0  0  0  0  0
   20.5694   22.0681   21.7643 H   0  0  0  0  0  0  0  0  0  0  0  0
   21.1582   21.1071   23.1134 H   0  0  0  0  0  0  0  0  0  0  0  0
   21.0344   20.0421   21.2040 C   0  0  0  0  0  0  0  0  0  0  0  0
   20.3394   19.9794   20.3557 H   0  0  0  0  0  0  0  0  0  0  0  0
   21.9827   20.4103   20.7896 H   0  0  0  0  0  0  0  0  0  0  0  0
   21.2743   18.6290   21.7791 C   0  0  0  0  0  0  0  0  0  0  0  0
   22.1201   18.6580   22.4789 H   0  0  0  0  0  0  0  0  0  0  0  0
   21.5969   17.9786   20.9550 H   0  0  0  0  0  0  0  0  0  0  0  0
   20.0419   17.9767   22.4623 C   0  0  0  0  0  0  0  0  0  0  0  0
   19.1742   18.0169   21.7917 H   0  0  0  0  0  0  0  0  0  0  0  0
   20.2628   16.9101   22.5972 H   0  0  0  0  0  0  0  0  0  0  0  0
   19.6582   18.5429   23.8538 C   0  0  0  0  0  0  0  0  0  0  0  0
   19.0055   17.7962   24.3290 H   0  0  0  0  0  0  0  0  0  0  0  0
   18.8589   19.8719   23.8467 C   0  0  0  0  0  0  0  0  0  0  0  0
   17.7913   19.6254   23.9155 H   0  0  0  0  0  0  0  0  0  0  0  0
   19.0852   20.4304   24.7645 H   0  0  0  0  0  0  0  0  0  0  0  0
   19.0414   20.8175   22.6337 C   0  0  0  0  0  0  0  0  0  0  0  0
   18.4790   20.4322   21.7724 H   0  0  0  0  0  0  0  0  0  0  0  0
   18.5733   21.7792   22.8844 H   0  0  0  0  0  0  0  0  0  0  0  0
   20.8171   18.6846   24.6710 O   0  0  0  0  0  0  0  0  0  0  0  0
   20.5104   19.0051   25.5434 H   0  0  0  0  0  0  0  0  0  0  0  0
  1  2  1  0  0  0  0
  1  3  1  0  0  0  0
  1  4  1  0  0  0  0
  4  5  1  0  0  0  0
  4  6  1  0  0  0  0
  4  7  1  0  0  0  0
  7  8  1  0  0  0  0
  7  9  1  0  0  0  0
  7 10  1  0  0  0  0
 10 11  1  0  0  0  0
 10 12  1  0  0  0  0
 10 13  1  0  0  0  0
 13 14  1  0  0  0  0
 13 15  1  0  0  0  0
 15 16  1  0  0  0  0
 15 17  1  0  0  0  0
  1 18  1  0  0  0  0
 15 18  1  0  0  0  0
 18 19  1  0  0  0  0
 18 20  1  0  0  0  0
 13 21  1  0  0  0  0
 21 22  1  0  0  0  0
M  END
> <VConfSearch Rank>
910

> <Conf_Id>
104

> <Delta U+W>
-1.172

> <U+W>
5.252

> <U>
7.482

> <W>
-2.230

> <W(PB)>
-4.220

> <W(SA)>
1.990

> <Valence>
12.309

> <Coulomb>
-7.084

> <VdW>
2.258

> <VdW6>
-9.770

> <VdW12>
12.028

> <Bond>
0.284

> <Angle>
3.491

> <Pdih>
8.535

> <Idih>
0.000

> <Tether>
0.000

$$$$
VeraChem MOL file


 22 22  0  0  0  0  0  0  0  0999 V2000     
   20.8009   19.9903   24.0833 C   0  0  0  0  0  0  0  0  0  0  0  0
   20.4865   21.0410   24.0217 H   0  0  0  0  0  0  0  0  0  0  0  0
   21.4005   19.9076   25.0002 H   0  0  0  0  0  0  0  0  0  0  0  0
   21.7082   19.6145   22.8896 C   0  0  0  0  0  0  0  0  0  0  0  0
   22.7225   19.9864   23.0898 H   0  0  0  0  0  0  0  0  0  0  0  0
   21.8108   18.5225   22.8405 H   0  0  0  0  0  0  0  0  0  0  0  0
   21.2667   20.1668   21.5106 C   0  0  0  0  0  0  0  0  0  0  0  0
   21.6700   19.5100   20.7275 H   0  0  0  0  0  0  0  0  0  0  0  0
   21.7533   21.1392   21.3539 H   0  0  0  0  0  0  0  0  0  0  0  0
   19.7441   20.3628   21.2769 C   0  0  0  0  0  0  0  0  0  0  0  0
   19.4227   21.2916   21.7657 H   0  0  0  0  0  0  0  0  0  0  0  0
   19.5851   20.5325   20.2041 H   0  0  0  0  0  0  0  0  0  0  0  0
   18.8092   19.2163   21.7257 C   0  0  0  0  0  0  0  0  0  0  0  0
   17.8733   19.3162   21.1574 H   0  0  0  0  0  0  0  0  0  0  0  0
   18.4339   19.2990   23.2226 C   0  0  0  0  0  0  0  0  0  0  0  0
   17.9884   20.2827   23.4195 H   0  0  0  0  0  0  0  0  0  0  0  0
   17.6367   18.5695   23.4162 H   0  0  0  0  0  0  0  0  0  0  0  0
   19.5785   19.0542   24.2369 C   0  0  0  0  0  0  0  0  0  0  0  0
   19.1671   19.1872   25.2467 H   0  0  0  0  0  0  0  0  0  0  0  0
   19.9031   18.0061   24.1864 H   0  0  0  0  0  0  0  0  0  0  0  0
   19.3923   17.9552   21.4363 O   0  0  0  0  0  0  0  0  0  0  0  0
   20.2501   17.9757   21.9055 H   0  0  0  0  0  0  0  0  0  0  0  0
  1  2  1  0  0  0  0
  1  3  1  0  0  0  0
  1  4  1  0  0  0  0
  4  5  1  0  0  0  0
  4  6  1  0  0  0  0
  4  7  1  0  0  0  0
  7  8  1  0  0  0  0
  7  9  1  0  0  0  0
  7 10  1  0  0  0  0
 10 11  1  0  0  0  0
 10 12  1  0  0  0  0
 10 13  1  0  0  0  0
 13 14  1  0  0  0  0
 13 15  1  0  0  0  0
 15 16  1  0  0  0  0
 15 17  1  0  0  0  0
  1 18  1  0  0  0  0
 15 18  1  0  0  0  0
 18 19  1  0  0  0  0
 18 20  1  0  0  0  0
 13 21  1  0  0  0  0
 21 22  1  0  0  0  0
M  END
> <VConfSearch Rank>
911

> <Conf_Id>
99

> <Delta U+W>
-3.852

> <U+W>
2.572

> <U>
3.922

> <W>
-1.350

> <W(PB)>
-3.345

> <W(SA)>
1.995

> <Valence>
12.571

> <Coulomb>
-10.581

> <VdW>
1.932

> <VdW6>
-10.483

> <VdW12>
12.415

> <Bond>
0.268

> <Angle>
3.728

> <Pdih>
8.575

> <Idih>
0.000

> <Tether>
0.000

$$$$
VeraChem MOL file


 22 22  0  0  0  0  0  0  0  0999 V2000     
   21.3353   19.7593   23.7555 C   0  0  0  0  0  0  0  0  0  0  0  0
   22.3717   19.5744   24.0701 H   0  0  0  0  0  0  0  0  0  0  0  0
   20.9067   20.3876   24.5477 H   0  0  0  0  0  0  0  0  0  0  0  0
   20.6006   18.3877   23.7024 C   0  0  0  0  0  0  0  0  0  0  0  0
   21.3190   17.6091   23.9942 H   0  0  0  0  0  0  0  0  0  0  0  0
   19.8149   18.3493   24.4687 H   0  0  0  0  0  0  0  0  0  0  0  0
   20.0050   17.9892   22.3279 C   0  0  0  0  0  0  0  0  0  0  0  0
   19.6944   16.9367   22.3769 H   0  0  0  0  0  0  0  0  0  0  0  0
   20.7917   18.0091   21.5636 H   0  0  0  0  0  0  0  0  0  0  0  0
   18.7849   18.8228   21.8467 C   0  0  0  0  0  0  0  0  0  0  0  0
   18.7132   18.7272   20.7556 H   0  0  0  0  0  0  0  0  0  0  0  0
   17.8708   18.3580   22.2393 H   0  0  0  0  0  0  0  0  0  0  0  0
   18.7367   20.3272   22.2110 C   0  0  0  0  0  0  0  0  0  0  0  0
   17.9395   20.7777   21.6027 H   0  0  0  0  0  0  0  0  0  0  0  0
   20.0258   21.1402   21.9368 C   0  0  0  0  0  0  0  0  0  0  0  0
   20.1006   21.3188   20.8563 H   0  0  0  0  0  0  0  0  0  0  0  0
   19.8925   22.1333   22.3863 H   0  0  0  0  0  0  0  0  0  0  0  0
   21.3802   20.5574   22.4274 C   0  0  0  0  0  0  0  0  0  0  0  0
   21.8246   19.9383   21.6382 H   0  0  0  0  0  0  0  0  0  0  0  0
   22.0815   21.3940   22.5496 H   0  0  0  0  0  0  0  0  0  0  0  0
   18.3604   20.4758   23.5710 O   0  0  0  0  0  0  0  0  0  0  0  0
   19.0960   20.0628   24.0663 H   0  0  0  0  0  0  0  0  0  0  0  0
  1  2  1  0  0  0  0
  1  3  1  0  0  0  0
  1  4  1  0  0  0  0
  4  5  1  0  0  0  0
  4  6  1  0  0  0  0
  4  7  1  0  0  0  0
  7  8  1  0  0  0  0
  7  9  1  0  0  0  0
  7 10  1  0  0  0  0
 10 11  1  0  0  0  0
 10 12  1  0  0  0  0
 10 13  1  0  0  0  0
 13 14  1  0  0  0  0
 13 15  1  0  0  0  0
 15 16  1  0  0  0  0
 15 17  1  0  0  0  0
  1 18  1  0  0  0  0
 15 18  1  0  0  0  0
 18 19  1  0  0  0  0
 18 20  1  0  0  0  0
 13 21  1  0  0  0  0
 21 22  1  0  0  0  0
M  END
> <VConfSearch Rank>
912

> <Conf_Id>
98

> <Delta U+W>
0.930

> <U+W>
7.353

> <U>
8.455

> <W>
-1.102

> <W(PB)>
-3.101

> <W(SA)>
2.000

> <Valence>
15.601

> <Coulomb>
-10.573

> <VdW>
3.427

> <VdW6>
-11.360

> <VdW12>
14.787

> <Bond>
0.471

> <Angle>
5.445

> <Pdih>
9.685

> <Idih>
0.000

> <Tether>
0.000

$$$$
VeraChem MOL file


 22 22  0  0  0  0  0  0  0  0999 V2000     
   20.4625   20.5121   21.3143 C   0  0  0  0  0  0  0  0  0  0  0  0
   21.1153   19.6885   20.9974 H   0  0  0  0  0  0  0  0  0  0  0  0
   20.5571   21.2706   20.5253 H   0  0  0  0  0  0  0  0  0  0  0  0
   20.9863   21.1142   22.6429 C   0  0  0  0  0  0  0  0  0  0  0  0
   22.0110   21.4679   22.4643 H   0  0  0  0  0  0  0  0  0  0  0  0
   20.4025   22.0096   22.8962 H   0  0  0  0  0  0  0  0  0  0  0  0
   21.0114   20.1578   23.8674 C   0  0  0  0  0  0  0  0  0  0  0  0
   20.1730   20.3839   24.5388 H   0  0  0  0  0  0  0  0  0  0  0  0
   21.9123   20.3786   24.4559 H   0  0  0  0  0  0  0  0  0  0  0  0
   21.0028   18.6455   23.5202 C   0  0  0  0  0  0  0  0  0  0  0  0
   21.8032   18.4371   22.7995 H   0  0  0  0  0  0  0  0  0  0  0  0
   21.2819   18.0832   24.4214 H   0  0  0  0  0  0  0  0  0  0  0  0
   19.6599   18.0817   22.9701 C   0  0  0  0  0  0  0  0  0  0  0  0
   19.8879   17.4583   22.0935 H   0  0  0  0  0  0  0  0  0  0  0  0
   18.6039   19.1354   22.5520 C   0  0  0  0  0  0  0  0  0  0  0  0
   17.6677   18.6201   22.3005 H   0  0  0  0  0  0  0  0  0  0  0  0
   18.3574   19.7717   23.4104 H   0  0  0  0  0  0  0  0  0  0  0  0
   18.9948   20.0249   21.3454 C   0  0  0  0  0  0  0  0  0  0  0  0
   18.7990   19.4709   20.4172 H   0  0  0  0  0  0  0  0  0  0  0  0
   18.3255   20.8957   21.3234 H   0  0  0  0  0  0  0  0  0  0  0  0
   19.0705   17.2623   23.9733 O   0  0  0  0  0  0  0  0  0  0  0  0
   18.2595   16.8758   23.5821 H   0  0  0  0  0  0  0  0  0  0  0  0
  1  2  1  0  0  0  0
  1  3  1  0  0  0  0
  1  4  1  0  0  0  0
  4  5  1  0  0  0  0
  4  6  1  0  0  0  0
  4  7  1  0  0  0  0
  7  8  1  0  0  0  0
  7  9  1  0  0  0  0
  7 10  1  0  0  0  0
 10 11  1  0  0  0  0
 10 12  1  0  0  0  0
 10 13  1  0  0  0  0
 13 14  1  0  0  0  0
 13 15  1  0  0  0  0
 15 16  1  0  0  0  0
 15 17  1  0  0  0  0
  1 18  1  0  0  0  0
 15 18  1  0  0  0  0
 18 19  1  0  0  0  0
 18 20  1  0  0  0  0
 13 21  1  0  0  0  0
 21 22  1  0  0  0  0
M  END
> <VConfSearch Rank>
913

> <Conf_Id>
141

> <Delta U+W>
0.000

> <U+W>
6.423

> <U>
8.781

> <W>
-2.358

> <W(PB)>
-4.373

> <W(SA)>
2.015

> <Valence>
13.328

> <Coulomb>
-8.387

> <VdW>
3.840

> <VdW6>
-9.744

> <VdW12>
13.584

> <Bond>
0.436

> <Angle>
3.478

> <Pdih>
9.415

> <Idih>
0.000

> <Tether>
0.000

$$$$
VeraChem MOL file


 22 22  0  0  0  0  0  0  0  0999 V2000     
   18.7460   19.9634   23.8421 C   0  0  0  0  0  0  0  0  0  0  0  0
   18.5573   18.8850   23.9315 H   0  0  0  0  0  0  0  0  0  0  0  0
   18.0846   20.4491   24.5725 H   0  0  0  0  0  0  0  0  0  0  0  0
   18.3528   20.4795   22.4368 C   0  0  0  0  0  0  0  0  0  0  0  0
   17.2600   20.4266   22.3377 H   0  0  0  0  0  0  0  0  0  0  0  0
   18.6087   21.5447   22.3553 H   0  0  0  0  0  0  0  0  0  0  0  0
   18.9820   19.7105   21.2522 C   0  0  0  0  0  0  0  0  0  0  0  0
   18.6826   20.2112   20.3213 H   0  0  0  0  0  0  0  0  0  0  0  0
   18.5505   18.7015   21.2018 H   0  0  0  0  0  0  0  0  0  0  0  0
   20.5267   19.6098   21.2844 C   0  0  0  0  0  0  0  0  0  0  0  0
   20.8570   19.2575   20.2983 H   0  0  0  0  0  0  0  0  0  0  0  0
   20.9767   20.6017   21.4208 H   0  0  0  0  0  0  0  0  0  0  0  0
   21.0382   18.6302   22.3643 C   0  0  0  0  0  0  0  0  0  0  0  0
   20.3030   17.8195   22.4697 H   0  0  0  0  0  0  0  0  0  0  0  0
   21.2607   19.2669   23.7551 C   0  0  0  0  0  0  0  0  0  0  0  0
   21.3027   18.4522   24.4895 H   0  0  0  0  0  0  0  0  0  0  0  0
   22.2482   19.7467   23.7813 H   0  0  0  0  0  0  0  0  0  0  0  0
   20.2067   20.3025   24.2208 C   0  0  0  0  0  0  0  0  0  0  0  0
   20.2801   20.3937   25.3131 H   0  0  0  0  0  0  0  0  0  0  0  0
   20.4659   21.2939   23.8249 H   0  0  0  0  0  0  0  0  0  0  0  0
   22.2740   18.0748   21.9310 O   0  0  0  0  0  0  0  0  0  0  0  0
   22.0945   17.6116   21.0862 H   0  0  0  0  0  0  0  0  0  0  0  0
  1  2  1  0  0  0  0
  1  3  1  0  0  0  0
  1  4  1  0  0  0  0
  4  5  1  0  0  0  0
  4  6  1  0  0  0  0
  4  7  1  0  0  0  0
  7  8  1  0  0  0  0
  7  9  1  0  0  0  0
  7 10  1  0  0  0  0
 10 11  1  0  0  0  0
 10 12  1  0  0  0  0
 10 13  1  0  0  0  0
 13 14  1  0  0  0  0
 13 15  1  0  0  0  0
 15 16  1  0  0  0  0
 15 17  1  0  0  0  0
  1 18  1  0  0  0  0
 15 18  1  0  0  0  0
 18 19  1  0  0  0  0
 18 20  1  0  0  0  0
 13 21  1  0  0  0  0
 21 22  1  0  0  0  0
M  END
> <VConfSearch Rank>
914

> <Conf_Id>
144

> <Delta U+W>
-3.291

> <U+W>
3.132

> <U>
5.411

> <W>
-2.279

> <W(PB)>
-4.300

> <W(SA)>
2.021

> <Valence>
11.909

> <Coulomb>
-8.733

> <VdW>
2.236

> <VdW6>
-8.936

> <VdW12>
11.172

> <Bond>
0.223

> <Angle>
2.457

> <Pdih>
9.228

> <Idih>
0.000

> <Tether>
0.000

$$$$
VeraChem MOL file


 22 22  0  0  0  0  0  0  0  0999 V2000     
   19.9514   18.2434   23.7882 C   0  0  0  0  0  0  0  0  0  0  0  0
   20.1079   17.6091   24.6715 H   0  0  0  0  0  0  0  0  0  0  0  0
   19.3780   17.6355   23.0753 H   0  0  0  0  0  0  0  0  0  0  0  0
   21.3385   18.6090   23.2101 C   0  0  0  0  0  0  0  0  0  0  0  0
   21.7545   19.4592   23.7676 H   0  0  0  0  0  0  0  0  0  0  0  0
   22.0298   17.7744   23.3903 H   0  0  0  0  0  0  0  0  0  0  0  0
   21.3558   18.9233   21.6945 C   0  0  0  0  0  0  0  0  0  0  0  0
   21.4209   17.9803   21.1347 H   0  0  0  0  0  0  0  0  0  0  0  0
   22.2824   19.4687   21.4686 H   0  0  0  0  0  0  0  0  0  0  0  0
   20.1513   19.7274   21.1462 C   0  0  0  0  0  0  0  0  0  0  0  0
   20.4455   20.1547   20.1780 H   0  0  0  0  0  0  0  0  0  0  0  0
   19.3262   19.0369   20.9283 H   0  0  0  0  0  0  0  0  0  0  0  0
   19.6433   20.8538   22.0739 C   0  0  0  0  0  0  0  0  0  0  0  0
   20.4921   21.2966   22.6143 H   0  0  0  0  0  0  0  0  0  0  0  0
   18.5866   20.3563   23.0863 C   0  0  0  0  0  0  0  0  0  0  0  0
   18.0887   21.2279   23.5318 H   0  0  0  0  0  0  0  0  0  0  0  0
   17.8043   19.7989   22.5550 H   0  0  0  0  0  0  0  0  0  0  0  0
   19.1397   19.4823   24.2369 C   0  0  0  0  0  0  0  0  0  0  0  0
   19.7576   20.1026   24.9005 H   0  0  0  0  0  0  0  0  0  0  0  0
   18.2921   19.1431   24.8480 H   0  0  0  0  0  0  0  0  0  0  0  0
   19.0380   21.8567   21.2689 O   0  0  0  0  0  0  0  0  0  0  0  0
   18.2914   21.4254   20.8045 H   0  0  0  0  0  0  0  0  0  0  0  0
  1  2  1  0  0  0  0
  1  3  1  0  0  0  0
  1  4  1  0  0  0  0
  4  5  1  0  0  0  0
  4  6  1  0  0  0  0
  4  7  1  0  0  0  0
  7  8  1  0  0  0  0
  7  9  1  0  0  0  0
  7 10  1  0  0  0  0
 10 11  1  0  0  0  0
 10 12  1  0  0  0  0
 10 13  1  0  0  0  0
 13 14  1  0  0  0  0
 13 15  1  0  0  0  0
 15 16  1  0  0  0  0
 15 17  1  0  0  0  0
  1 18  1  0  0  0  0
 15 18  1  0  0  0  0
 18 19  1  0  0  0  0
 18 20  1  0  0  0  0
 13 21  1  0  0  0  0
 21 22  1  0  0  0  0
M  END
> <VConfSearch Rank>
915

> <Conf_Id>
76

> <Delta U+W>
-3.175

> <U+W>
3.248

> <U>
5.336

> <W>
-2.088

> <W(PB)>
-4.098

> <W(SA)>
2.010

> <Valence>
12.390

> <Coulomb>
-9.270

> <VdW>
2.216

> <VdW6>
-8.967

> <VdW12>
11.183

> <Bond>
0.218

> <Angle>
2.426

> <Pdih>
9.745

> <Idih>
0.000

> <Tether>
0.000

$$$$
VeraChem MOL file


 22 22  0  0  0  0  0  0  0  0999 V2000     
   19.4586   20.8893   23.8589 C   0  0  0  0  0  0  0  0  0  0  0  0
   18.4261   21.0566   24.1946 H   0  0  0  0  0  0  0  0  0  0  0  0
   20.0733   21.6109   24.4142 H   0  0  0  0  0  0  0  0  0  0  0  0
   19.5365   21.2212   22.3494 C   0  0  0  0  0  0  0  0  0  0  0  0
   18.6058   20.9087   21.8569 H   0  0  0  0  0  0  0  0  0  0  0  0
   19.5719   22.3141   22.2437 H   0  0  0  0  0  0  0  0  0  0  0  0
   20.7443   20.6053   21.6055 C   0  0  0  0  0  0  0  0  0  0  0  0
   21.6407   20.6078   22.2405 H   0  0  0  0  0  0  0  0  0  0  0  0
   20.9784   21.2469   20.7454 H   0  0  0  0  0  0  0  0  0  0  0  0
   20.4545   19.1812   21.0668 C   0  0  0  0  0  0  0  0  0  0  0  0
   19.5165   19.1949   20.4972 H   0  0  0  0  0  0  0  0  0  0  0  0
   21.2354   18.9152   20.3424 H   0  0  0  0  0  0  0  0  0  0  0  0
   20.3796   18.0540   22.1218 C   0  0  0  0  0  0  0  0  0  0  0  0
   19.9927   17.1629   21.6067 H   0  0  0  0  0  0  0  0  0  0  0  0
   19.4370   18.3335   23.3192 C   0  0  0  0  0  0  0  0  0  0  0  0
   18.4232   18.5423   22.9539 H   0  0  0  0  0  0  0  0  0  0  0  0
   19.3567   17.4060   23.9008 H   0  0  0  0  0  0  0  0  0  0  0  0
   19.9006   19.4654   24.2727 C   0  0  0  0  0  0  0  0  0  0  0  0
   19.5019   19.2672   25.2768 H   0  0  0  0  0  0  0  0  0  0  0  0
   20.9926   19.4409   24.3836 H   0  0  0  0  0  0  0  0  0  0  0  0
   21.6922   17.7607   22.5899 O   0  0  0  0  0  0  0  0  0  0  0  0
   21.5938   17.0829   23.2893 H   0  0  0  0  0  0  0  0  0  0  0  0
  1  2  1  0  0  0  0
  1  3  1  0  0  0  0
  1  4  1  0  0  0  0
  4  5  1  0  0  0  0
  4  6  1  0  0  0  0
  4  7  1  0  0  0  0
  7  8  1  0  0  0  0
  7  9  1  0  0  0  0
  7 10  1  0  0  0  0
 10 11  1  0  0  0  0
 10 12  1  0  0  0  0
 10 13  1  0  0  0  0
 13 14  1  0  0  0  0
 13 15  1  0  0  0  0
 15 16  1  0  0  0  0
 15 17  1  0  0  0  0
  1 18  1  0  0  0  0
 15 18  1  0  0  0  0
 18 19  1  0  0  0  0
 18 20  1  0  0  0  0
 13 21  1  0  0  0  0
 21 22  1  0  0  0  0
M  END
> <VConfSearch Rank>
916

> <Conf_Id>
95

> <Delta U+W>
-2.289

> <U+W>
4.134

> <U>
6.373

> <W>
-2.240

> <W(PB)>
-4.254

> <W(SA)>
2.015

> <Valence>
12.093

> <Coulomb>
-8.058

> <VdW>
2.339

> <VdW6>
-9.683

> <VdW12>
12.022

> <Bond>
0.268

> <Angle>
3.005

> <Pdih>
8.820

> <Idih>
0.000

> <Tether>
0.000

$$$$
VeraChem MOL file


 22 22  0  0  0  0  0  0  0  0999 V2000     
   18.9665   18.2292   21.9774 C   0  0  0  0  0  0  0  0  0  0  0  0
   18.0552   18.3245   21.3713 H   0  0  0  0  0  0  0  0  0  0  0  0
   19.1637   17.1511   22.0514 H   0  0  0  0  0  0  0  0  0  0  0  0
   18.6673   18.7820   23.3913 C   0  0  0  0  0  0  0  0  0  0  0  0
   17.9898   19.6429   23.3119 H   0  0  0  0  0  0  0  0  0  0  0  0
   18.1051   18.0162   23.9430 H   0  0  0  0  0  0  0  0  0  0  0  0
   19.9131   19.1817   24.2159 C   0  0  0  0  0  0  0  0  0  0  0  0
   20.7422   18.4830   24.0393 H   0  0  0  0  0  0  0  0  0  0  0  0
   19.6596   19.0912   25.2808 H   0  0  0  0  0  0  0  0  0  0  0  0
   20.3560   20.6441   23.9584 C   0  0  0  0  0  0  0  0  0  0  0  0
   19.4859   21.3057   24.0591 H   0  0  0  0  0  0  0  0  0  0  0  0
   21.0460   20.9475   24.7564 H   0  0  0  0  0  0  0  0  0  0  0  0
   21.0335   20.9219   22.5970 C   0  0  0  0  0  0  0  0  0  0  0  0
   21.1220   22.0139   22.5032 H   0  0  0  0  0  0  0  0  0  0  0  0
   20.2495   20.4218   21.3579 C   0  0  0  0  0  0  0  0  0  0  0  0
   19.2473   20.8688   21.3432 H   0  0  0  0  0  0  0  0  0  0  0  0
   20.7642   20.8107   20.4698 H   0  0  0  0  0  0  0  0  0  0  0  0
   20.1480   18.8804   21.2195 C   0  0  0  0  0  0  0  0  0  0  0  0
   20.0464   18.6279   20.1555 H   0  0  0  0  0  0  0  0  0  0  0  0
   21.0894   18.4142   21.5393 H   0  0  0  0  0  0  0  0  0  0  0  0
   22.3463   20.3692   22.6013 O   0  0  0  0  0  0  0  0  0  0  0  0
   22.7890   20.7018   23.4085 H   0  0  0  0  0  0  0  0  0  0  0  0
  1  2  1  0  0  0  0
  1  3  1  0  0  0  0
  1  4  1  0  0  0  0
  4  5  1  0  0  0  0
  4  6  1  0  0  0  0
  4  7  1  0  0  0  0
  7  8  1  0  0  0  0
  7  9  1  0  0  0  0
  7 10  1  0  0  0  0
 10 11  1  0  0  0  0
 10 12  1  0  0  0  0
 10 13  1  0  0  0  0
 13 14  1  0  0  0  0
 13 15  1  0  0  0  0
 15 16  1  0  0  0  0
 15 17  1  0  0  0  0
  1 18  1  0  0  0  0
 15 18  1  0  0  0  0
 18 19  1  0  0  0  0
 18 20  1  0  0  0  0
 13 21  1  0  0  0  0
 21 22  1  0  0  0  0
M  END
> <VConfSearch Rank>
917

> <Conf_Id>
41

> <Delta U+W>
-2.114

> <U+W>
4.310

> <U>
6.598

> <W>
-2.289

> <W(PB)>
-4.294

> <W(SA)>
2.005

> <Valence>
12.082

> <Coulomb>
-7.801

> <VdW>
2.317

> <VdW6>
-9.658

> <VdW12>
11.975

> <Bond>
0.267

> <Angle>
3.051

> <Pdih>
8.764

> <Idih>
0.000

> <Tether>
0.000

$$$$
VeraChem MOL file


 22 22  0  0  0  0  0  0  0  0999 V2000     
   19.0555   20.1291   21.5464 C   0  0  0  0  0  0  0  0  0  0  0  0
   18.1935   20.4677   20.9558 H   0  0  0  0  0  0  0  0  0  0  0  0
   19.9424   20.5873   21.0874 H   0  0  0  0  0  0  0  0  0  0  0  0
   19.1227   18.5886   21.4465 C   0  0  0  0  0  0  0  0  0  0  0  0
   18.2599   18.1488   21.9648 H   0  0  0  0  0  0  0  0  0  0  0  0
   19.0191   18.3007   20.3915 H   0  0  0  0  0  0  0  0  0  0  0  0
   20.4252   17.9638   21.9925 C   0  0  0  0  0  0  0  0  0  0  0  0
   21.2642   18.2388   21.3395 H   0  0  0  0  0  0  0  0  0  0  0  0
   20.3362   16.8721   21.9127 H   0  0  0  0  0  0  0  0  0  0  0  0
   20.7606   18.3199   23.4663 C   0  0  0  0  0  0  0  0  0  0  0  0
   19.8945   18.1177   24.1091 H   0  0  0  0  0  0  0  0  0  0  0  0
   21.5467   17.6322   23.8034 H   0  0  0  0  0  0  0  0  0  0  0  0
   21.2763   19.7606   23.7162 C   0  0  0  0  0  0  0  0  0  0  0  0
   21.7595   19.7556   24.7040 H   0  0  0  0  0  0  0  0  0  0  0  0
   20.1916   20.8675   23.7725 C   0  0  0  0  0  0  0  0  0  0  0  0
   19.9302   21.0323   24.8259 H   0  0  0  0  0  0  0  0  0  0  0  0
   20.6296   21.8153   23.4328 H   0  0  0  0  0  0  0  0  0  0  0  0
   18.8725   20.6256   22.9976 C   0  0  0  0  0  0  0  0  0  0  0  0
   18.2368   19.9233   23.5534 H   0  0  0  0  0  0  0  0  0  0  0  0
   18.3167   21.5729   22.9771 H   0  0  0  0  0  0  0  0  0  0  0  0
   22.2676   20.1090   22.7534 O   0  0  0  0  0  0  0  0  0  0  0  0
   22.5825   21.0066   22.9840 H   0  0  0  0  0  0  0  0  0  0  0  0
  1  2  1  0  0  0  0
  1  3  1  0  0  0  0
  1  4  1  0  0  0  0
  4  5  1  0  0  0  0
  4  6  1  0  0  0  0
  4  7  1  0  0  0  0
  7  8  1  0  0  0  0
  7  9  1  0  0  0  0
  7 10  1  0  0  0  0
 10 11  1  0  0  0  0
 10 12  1  0  0  0  0
 10 13  1  0  0  0  0
 13 14  1  0  0  0  0
 13 15  1  0  0  0  0
 15 16  1  0  0  0  0
 15 17  1  0  0  0  0
  1 18  1  0  0  0  0
 15 18  1  0  0  0  0
 18 19  1  0  0  0  0
 18 20  1  0  0  0  0
 13 21  1  0  0  0  0
 21 22  1  0  0  0  0
M  END
> <VConfSearch Rank>
918

> <Conf_Id>
104

> <Delta U+W>
-1.172

> <U+W>
5.252

> <U>
7.482

> <W>
-2.230

> <W(PB)>
-4.220

> <W(SA)>
1.990

> <Valence>
12.309

> <Coulomb>
-7.084

> <VdW>
2.258

> <VdW6>
-9.770

> <VdW12>
12.028

> <Bond>
0.284

> <Angle>
3.491

> <Pdih>
8.535

> <Idih>
0.000

> <Tether>
0.000

$$$$
VeraChem MOL file


 22 22  0  0  0  0  0  0  0  0999 V2000     
   19.7553   19.3113   24.2609 C   0  0  0  0  0  0  0  0  0  0  0  0
   19.0861   18.4662   24.0501 H   0  0  0  0  0  0  0  0  0  0  0  0
   19.7580   19.4293   25.3532 H   0  0  0  0  0  0  0  0  0  0  0  0
   19.2050   20.6182   23.6455 C   0  0  0  0  0  0  0  0  0  0  0  0
   18.4154   21.0091   24.3019 H   0  0  0  0  0  0  0  0  0  0  0  0
   19.9905   21.3852   23.6586 H   0  0  0  0  0  0  0  0  0  0  0  0
   18.6130   20.4915   22.2190 C   0  0  0  0  0  0  0  0  0  0  0  0
   18.6790   21.4716   21.7267 H   0  0  0  0  0  0  0  0  0  0  0  0
   17.5382   20.2814   22.3063 H   0  0  0  0  0  0  0  0  0  0  0  0
   19.2265   19.4112   21.2874 C   0  0  0  0  0  0  0  0  0  0  0  0
   18.8169   18.4294   21.5580 H   0  0  0  0  0  0  0  0  0  0  0  0
   18.8686   19.6008   20.2671 H   0  0  0  0  0  0  0  0  0  0  0  0
   20.7686   19.3111   21.2447 C   0  0  0  0  0  0  0  0  0  0  0  0
   21.0383   18.8199   20.2988 H   0  0  0  0  0  0  0  0  0  0  0  0
   21.3451   18.4377   22.3819 C   0  0  0  0  0  0  0  0  0  0  0  0
   20.8755   17.4465   22.3364 H   0  0  0  0  0  0  0  0  0  0  0  0
   22.4105   18.2696   22.1775 H   0  0  0  0  0  0  0  0  0  0  0  0
   21.2042   18.9943   23.8204 C   0  0  0  0  0  0  0  0  0  0  0  0
   21.6194   18.2483   24.5117 H   0  0  0  0  0  0  0  0  0  0  0  0
   21.8332   19.8871   23.9375 H   0  0  0  0  0  0  0  0  0  0  0  0
   21.3532   20.6039   21.2763 O   0  0  0  0  0  0  0  0  0  0  0  0
   21.0032   21.0040   22.0970 H   0  0  0  0  0  0  0  0  0  0  0  0
  1  2  1  0  0  0  0
  1  3  1  0  0  0  0
  1  4  1  0  0  0  0
  4  5  1  0  0  0  0
  4  6  1  0  0  0  0
  4  7  1  0  0  0  0
  7  8  1  0  0  0  0
  7  9  1  0  0  0  0
  7 10  1  0  0  0  0
 10 11  1  0  0  0  0
 10 12  1  0  0  0  0
 10 13  1  0  0  0  0
 13 14  1  0  0  0  0
 13 15  1  0  0  0  0
 15 16  1  0  0  0  0
 15 17  1  0  0  0  0
  1 18  1  0  0  0  0
 15 18  1  0  0  0  0
 18 19  1  0  0  0  0
 18 20  1  0  0  0  0
 13 21  1  0  0  0  0
 21 22  1  0  0  0  0
M  END
> <VConfSearch Rank>
919

> <Conf_Id>
99

> <Delta U+W>
-3.852

> <U+W>
2.572

> <U>
3.922

> <W>
-1.350

> <W(PB)>
-3.345

> <W(SA)>
1.995

> <Valence>
12.571

> <Coulomb>
-10.581

> <VdW>
1.932

> <VdW6>
-10.483

> <VdW12>
12.415

> <Bond>
0.268

> <Angle>
3.728

> <Pdih>
8.575

> <Idih>
0.000

> <Tether>
0.000

$$$$
VeraChem MOL file


 22 22  0  0  0  0  0  0  0  0999 V2000     
   19.6542   19.8409   21.0829 C   0  0  0  0  0  0  0  0  0  0  0  0
   19.1996   19.5112   20.1385 H   0  0  0  0  0  0  0  0  0  0  0  0
   19.9996   20.8650   20.8885 H   0  0  0  0  0  0  0  0  0  0  0  0
   20.8684   18.9122   21.3782 C   0  0  0  0  0  0  0  0  0  0  0  0
   20.9394   18.1806   20.5614 H   0  0  0  0  0  0  0  0  0  0  0  0
   21.8040   19.4850   21.3273 H   0  0  0  0  0  0  0  0  0  0  0  0
   20.8131   18.1259   22.7129 C   0  0  0  0  0  0  0  0  0  0  0  0
   21.6159   17.3761   22.7067 H   0  0  0  0  0  0  0  0  0  0  0  0
   19.8877   17.5384   22.7585 H   0  0  0  0  0  0  0  0  0  0  0  0
   20.9622   18.9712   24.0082 C   0  0  0  0  0  0  0  0  0  0  0  0
   20.5252   18.4040   24.8401 H   0  0  0  0  0  0  0  0  0  0  0  0
   22.0311   19.0568   24.2453 H   0  0  0  0  0  0  0  0  0  0  0  0
   20.3655   20.4002   24.0226 C   0  0  0  0  0  0  0  0  0  0  0  0
   20.3688   20.7372   25.0691 H   0  0  0  0  0  0  0  0  0  0  0  0
   18.9111   20.5405   23.5094 C   0  0  0  0  0  0  0  0  0  0  0  0
   18.2317   20.1589   24.2824 H   0  0  0  0  0  0  0  0  0  0  0  0
   18.6896   21.6133   23.4325 H   0  0  0  0  0  0  0  0  0  0  0  0
   18.5399   19.8648   22.1602 C   0  0  0  0  0  0  0  0  0  0  0  0
   18.1801   18.8447   22.3436 H   0  0  0  0  0  0  0  0  0  0  0  0
   17.6703   20.3941   21.7475 H   0  0  0  0  0  0  0  0  0  0  0  0
   21.2129   21.2773   23.2975 O   0  0  0  0  0  0  0  0  0  0  0  0
   21.1759   20.9377   22.3809 H   0  0  0  0  0  0  0  0  0  0  0  0
  1  2  1  0  0  0  0
  1  3  1  0  0  0  0
  1  4  1  0  0  0  0
  4  5  1  0  0  0  0
  4  6  1  0  0  0  0
  4  7  1  0  0  0  0
  7  8  1  0  0  0  0
  7  9  1  0  0  0  0
  7 10  1  0  0  0  0
 10 11  1  0  0  0  0
 10 12  1  0  0  0  0
 10 13  1  0  0  0  0
 13 14  1  0  0  0  0
 13 15  1  0  0  0  0
 15 16  1  0  0  0  0
 15 17  1  0  0  0  0
  1 18  1  0  0  0  0
 15 18  1  0  0  0  0
 18 19  1  0  0  0  0
 18 20  1  0  0  0  0
 13 21  1  0  0  0  0
 21 22  1  0  0  0  0
M  END
> <VConfSearch Rank>
920

> <Conf_Id>
98

> <Delta U+W>
0.930

> <U+W>
7.353

> <U>
8.455

> <W>
-1.102

> <W(PB)>
-3.101

> <W(SA)>
2.000

> <Valence>
15.601

> <Coulomb>
-10.573

> <VdW>
3.427

> <VdW6>
-11.360

> <VdW12>
14.787

> <Bond>
0.471

> <Angle>
5.445

> <Pdih>
9.685

> <Idih>
0.000

> <Tether>
0.000

$$$$
VeraChem MOL file


 22 22  0  0  0  0  0  0  0  0999 V2000     
   19.0224   18.6498   23.7441 C   0  0  0  0  0  0  0  0  0  0  0  0
   19.8728   18.6498   24.4380 H   0  0  0  0  0  0  0  0  0  0  0  0
   18.2094   18.1515   24.2895 H   0  0  0  0  0  0  0  0  0  0  0  0
   19.3677   17.8038   22.4922 C   0  0  0  0  0  0  0  0  0  0  0  0
   19.5988   16.7859   22.8346 H   0  0  0  0  0  0  0  0  0  0  0  0
   18.4774   17.7086   21.8558 H   0  0  0  0  0  0  0  0  0  0  0  0
   20.5595   18.3066   21.6311 C   0  0  0  0  0  0  0  0  0  0  0  0
   20.1867   18.8001   20.7242 H   0  0  0  0  0  0  0  0  0  0  0  0
   21.1137   17.4302   21.2686 H   0  0  0  0  0  0  0  0  0  0  0  0
   21.5480   19.2511   22.3650 C   0  0  0  0  0  0  0  0  0  0  0  0
   21.8679   18.7793   23.3023 H   0  0  0  0  0  0  0  0  0  0  0  0
   22.4628   19.3286   21.7621 H   0  0  0  0  0  0  0  0  0  0  0  0
   21.0211   20.6844   22.6678 C   0  0  0  0  0  0  0  0  0  0  0  0
   21.2764   20.9261   23.7097 H   0  0  0  0  0  0  0  0  0  0  0  0
   19.4982   20.8994   22.4813 C   0  0  0  0  0  0  0  0  0  0  0  0
   19.2722   21.9666   22.6041 H   0  0  0  0  0  0  0  0  0  0  0  0
   19.2163   20.6654   21.4477 H   0  0  0  0  0  0  0  0  0  0  0  0
   18.5913   20.1071   23.4558 C   0  0  0  0  0  0  0  0  0  0  0  0
   18.5427   20.6446   24.4126 H   0  0  0  0  0  0  0  0  0  0  0  0
   17.5676   20.1080   23.0574 H   0  0  0  0  0  0  0  0  0  0  0  0
   21.6894   21.6011   21.8087 O   0  0  0  0  0  0  0  0  0  0  0  0
   21.3831   22.4977   22.0587 H   0  0  0  0  0  0  0  0  0  0  0  0
  1  2  1  0  0  0  0
  1  3  1  0  0  0  0
  1  4  1  0  0  0  0
  4  5  1  0  0  0  0
  4  6  1  0  0  0  0
  4  7  1  0  0  0  0
  7  8  1  0  0  0  0
  7  9  1  0  0  0  0
  7 10  1  0  0  0  0
 10 11  1  0  0  0  0
 10 12  1  0  0  0  0
 10 13  1  0  0  0  0
 13 14  1  0  0  0  0
 13 15  1  0  0  0  0
 15 16  1  0  0  0  0
 15 17  1  0  0  0  0
  1 18  1  0  0  0  0
 15 18  1  0  0  0  0
 18 19  1  0  0  0  0
 18 20  1  0  0  0  0
 13 21  1  0  0  0  0
 21 22  1  0  0  0  0
M  END
> <VConfSearch Rank>
921

> <Conf_Id>
141

> <Delta U+W>
0.000

> <U+W>
6.423

> <U>
8.781

> <W>
-2.358

> <W(PB)>
-4.373

> <W(SA)>
2.015

> <Valence>
13.328

> <Coulomb>
-8.387

> <VdW>
3.840

> <VdW6>
-9.744

> <VdW12>
13.584

> <Bond>
0.436

> <Angle>
3.478

> <Pdih>
9.415

> <Idih>
0.000

> <Tether>
0.000

$$$$
VeraChem MOL file


 22 22  0  0  0  0  0  0  0  0999 V2000     
   18.3096   19.6349   22.1557 C   0  0  0  0  0  0  0  0  0  0  0  0
   18.0478   20.0698   23.1298 H   0  0  0  0  0  0  0  0  0  0  0  0
   17.3736   19.5882   21.5825 H   0  0  0  0  0  0  0  0  0  0  0  0
   18.8332   18.1874   22.3185 C   0  0  0  0  0  0  0  0  0  0  0  0
   18.0001   17.5482   22.6412 H   0  0  0  0  0  0  0  0  0  0  0  0
   19.1442   17.8003   21.3386 H   0  0  0  0  0  0  0  0  0  0  0  0
   19.9919   18.0150   23.3275 C   0  0  0  0  0  0  0  0  0  0  0  0
   20.3154   16.9655   23.3013 H   0  0  0  0  0  0  0  0  0  0  0  0
   19.6177   18.1878   24.3458 H   0  0  0  0  0  0  0  0  0  0  0  0
   21.2230   18.9181   23.0703 C   0  0  0  0  0  0  0  0  0  0  0  0
   22.0454   18.5437   23.6939 H   0  0  0  0  0  0  0  0  0  0  0  0
   21.5613   18.8246   22.0302 H   0  0  0  0  0  0  0  0  0  0  0  0
   20.9602   20.3994   23.4229 C   0  0  0  0  0  0  0  0  0  0  0  0
   20.2591   20.4326   24.2692 H   0  0  0  0  0  0  0  0  0  0  0  0
   20.3667   21.2386   22.2684 C   0  0  0  0  0  0  0  0  0  0  0  0
   19.9318   22.1456   22.7077 H   0  0  0  0  0  0  0  0  0  0  0  0
   21.1790   21.5814   21.6135 H   0  0  0  0  0  0  0  0  0  0  0  0
   19.2943   20.5484   21.3889 C   0  0  0  0  0  0  0  0  0  0  0  0
   18.7244   21.3319   20.8710 H   0  0  0  0  0  0  0  0  0  0  0  0
   19.7866   19.9698   20.5954 H   0  0  0  0  0  0  0  0  0  0  0  0
   22.1867   21.0007   23.8196 O   0  0  0  0  0  0  0  0  0  0  0  0
   22.5072   20.5005   24.5991 H   0  0  0  0  0  0  0  0  0  0  0  0
  1  2  1  0  0  0  0
  1  3  1  0  0  0  0
  1  4  1  0  0  0  0
  4  5  1  0  0  0  0
  4  6  1  0  0  0  0
  4  7  1  0  0  0  0
  7  8  1  0  0  0  0
  7  9  1  0  0  0  0
  7 10  1  0  0  0  0
 10 11  1  0  0  0  0
 10 12  1  0  0  0  0
 10 13  1  0  0  0  0
 13 14  1  0  0  0  0
 13 15  1  0  0  0  0
 15 16  1  0  0  0  0
 15 17  1  0  0  0  0
  1 18  1  0  0  0  0
 15 18  1  0  0  0  0
 18 19  1  0  0  0  0
 18 20  1  0  0  0  0
 13 21  1  0  0  0  0
 21 22  1  0  0  0  0
M  END
> <VConfSearch Rank>
922

> <Conf_Id>
144

> <Delta U+W>
-3.291

> <U+W>
3.132

> <U>
5.411

> <W>
-2.279

> <W(PB)>
-4.300

> <W(SA)>
2.021

> <Valence>
11.909

> <Coulomb>
-8.733

> <VdW>
2.236

> <VdW6>
-8.936

> <VdW12>
11.172

> <Bond>
0.223

> <Angle>
2.457

> <Pdih>
9.228

> <Idih>
0.000

> <Tether>
0.000

$$$$
VeraChem MOL file


 22 22  0  0  0  0  0  0  0  0999 V2000     
   19.4028   18.4753   21.4071 C   0  0  0  0  0  0  0  0  0  0  0  0
   19.2157   17.5956   20.7761 H   0  0  0  0  0  0  0  0  0  0  0  0
   18.8651   19.3083   20.9342 H   0  0  0  0  0  0  0  0  0  0  0  0
   20.9267   18.7393   21.4198 C   0  0  0  0  0  0  0  0  0  0  0  0
   21.4049   18.0850   22.1614 H   0  0  0  0  0  0  0  0  0  0  0  0
   21.3474   18.4394   20.4503 H   0  0  0  0  0  0  0  0  0  0  0  0
   21.3360   20.2087   21.6830 C   0  0  0  0  0  0  0  0  0  0  0  0
   21.2928   20.7666   20.7376 H   0  0  0  0  0  0  0  0  0  0  0  0
   22.3914   20.2206   21.9881 H   0  0  0  0  0  0  0  0  0  0  0  0
   20.4986   20.9770   22.7349 C   0  0  0  0  0  0  0  0  0  0  0  0
   21.0822   21.8503   23.0561 H   0  0  0  0  0  0  0  0  0  0  0  0
   19.5985   21.3812   22.2538 H   0  0  0  0  0  0  0  0  0  0  0  0
   20.0877   20.1479   23.9724 C   0  0  0  0  0  0  0  0  0  0  0  0
   20.8838   19.4300   24.2155 H   0  0  0  0  0  0  0  0  0  0  0  0
   18.7548   19.3935   23.7643 C   0  0  0  0  0  0  0  0  0  0  0  0
   18.3947   19.0402   24.7398 H   0  0  0  0  0  0  0  0  0  0  0  0
   17.9926   20.0916   23.3944 H   0  0  0  0  0  0  0  0  0  0  0  0
   18.8310   18.1754   22.8135 C   0  0  0  0  0  0  0  0  0  0  0  0
   19.4242   17.3809   23.2867 H   0  0  0  0  0  0  0  0  0  0  0  0
   17.8184   17.7651   22.6997 H   0  0  0  0  0  0  0  0  0  0  0  0
   19.9197   21.0360   25.0694 O   0  0  0  0  0  0  0  0  0  0  0  0
   19.2071   21.6579   24.8152 H   0  0  0  0  0  0  0  0  0  0  0  0
  1  2  1  0  0  0  0
  1  3  1  0  0  0  0
  1  4  1  0  0  0  0
  4  5  1  0  0  0  0
  4  6  1  0  0  0  0
  4  7  1  0  0  0  0
  7  8  1  0  0  0  0
  7  9  1  0  0  0  0
  7 10  1  0  0  0  0
 10 11  1  0  0  0  0
 10 12  1  0  0  0  0
 10 13  1  0  0  0  0
 13 14  1  0  0  0  0
 13 15  1  0  0  0  0
 15 16  1  0  0  0  0
 15 17  1  0  0  0  0
  1 18  1  0  0  0  0
 15 18  1  0  0  0  0
 18 19  1  0  0  0  0
 18 20  1  0  0  0  0
 13 21  1  0  0  0  0
 21 22  1  0  0  0  0
M  END
> <VConfSearch Rank>
923

> <Conf_Id>
76

> <Delta U+W>
-3.175

> <U+W>
3.248

> <U>
5.336

> <W>
-2.088

> <W(PB)>
-4.098

> <W(SA)>
2.010

> <Valence>
12.390

> <Coulomb>
-9.270

> <VdW>
2.216

> <VdW6>
-8.967

> <VdW12>
11.183

> <Bond>
0.218

> <Angle>
2.426

> <Pdih>
9.745

> <Idih>
0.000

> <Tether>
0.000

$$$$
VeraChem MOL file


 22 22  0  0  0  0  0  0  0  0999 V2000     
   19.4997   21.0307   23.6995 C   0  0  0  0  0  0  0  0  0  0  0  0
   19.7201   22.0904   23.5120 H   0  0  0  0  0  0  0  0  0  0  0  0
   18.8093   21.0164   24.5539 H   0  0  0  0  0  0  0  0  0  0  0  0
   20.8164   20.3272   24.1069 C   0  0  0  0  0  0  0  0  0  0  0  0
   21.6519   20.7537   23.5356 H   0  0  0  0  0  0  0  0  0  0  0  0
   21.0224   20.5746   25.1572 H   0  0  0  0  0  0  0  0  0  0  0  0
   20.8140   18.7893   23.9444 C   0  0  0  0  0  0  0  0  0  0  0  0
   19.8337   18.3675   24.2050 H   0  0  0  0  0  0  0  0  0  0  0  0
   21.5279   18.3691   24.6656 H   0  0  0  0  0  0  0  0  0  0  0  0
   21.2508   18.3348   22.5285 C   0  0  0  0  0  0  0  0  0  0  0  0
   22.1960   18.8276   22.2671 H   0  0  0  0  0  0  0  0  0  0  0  0
   21.4771   17.2609   22.5596 H   0  0  0  0  0  0  0  0  0  0  0  0
   20.2331   18.5744   21.3901 C   0  0  0  0  0  0  0  0  0  0  0  0
   20.7596   18.3710   20.4463 H   0  0  0  0  0  0  0  0  0  0  0  0
   19.6738   20.0163   21.2984 C   0  0  0  0  0  0  0  0  0  0  0  0
   20.5007   20.7298   21.1881 H   0  0  0  0  0  0  0  0  0  0  0  0
   19.0949   20.0884   20.3687 H   0  0  0  0  0  0  0  0  0  0  0  0
   18.7580   20.4439   22.4747 C   0  0  0  0  0  0  0  0  0  0  0  0
   18.0503   21.2026   22.1141 H   0  0  0  0  0  0  0  0  0  0  0  0
   18.1374   19.5972   22.7961 H   0  0  0  0  0  0  0  0  0  0  0  0
   19.1641   17.6413   21.5115 O   0  0  0  0  0  0  0  0  0  0  0  0
   18.5210   17.8608   20.8069 H   0  0  0  0  0  0  0  0  0  0  0  0
  1  2  1  0  0  0  0
  1  3  1  0  0  0  0
  1  4  1  0  0  0  0
  4  5  1  0  0  0  0
  4  6  1  0  0  0  0
  4  7  1  0  0  0  0
  7  8  1  0  0  0  0
  7  9  1  0  0  0  0
  7 10  1  0  0  0  0
 10 11  1  0  0  0  0
 10 12  1  0  0  0  0
 10 13  1  0  0  0  0
 13 14  1  0  0  0  0
 13 15  1  0  0  0  0
 15 16  1  0  0  0  0
 15 17  1  0  0  0  0
  1 18  1  0  0  0  0
 15 18  1  0  0  0  0
 18 19  1  0  0  0  0
 18 20  1  0  0  0  0
 13 21  1  0  0  0  0
 21 22  1  0  0  0  0
M  END
> <VConfSearch Rank>
924

> <Conf_Id>
95

> <Delta U+W>
-2.289

> <U+W>
4.134

> <U>
6.373

> <W>
-2.240

> <W(PB)>
-4.254

> <W(SA)>
2.015

> <Valence>
12.093

> <Coulomb>
-8.058

> <VdW>
2.339

> <VdW6>
-9.683

> <VdW12>
12.022

> <Bond>
0.268

> <Angle>
3.005

> <Pdih>
8.820

> <Idih>
0.000

> <Tether>
0.000

$$$$
VeraChem MOL file


 22 22  0  0  0  0  0  0  0  0999 V2000     
   20.5496   17.7852   22.7175 C   0  0  0  0  0  0  0  0  0  0  0  0
   21.0779   17.2247   21.9342 H   0  0  0  0  0  0  0  0  0  0  0  0
   20.3994   17.0750   23.5421 H   0  0  0  0  0  0  0  0  0  0  0  0
   19.1685   18.2079   22.1625 C   0  0  0  0  0  0  0  0  0  0  0  0
   19.2623   18.4531   21.0959 H   0  0  0  0  0  0  0  0  0  0  0  0
   18.5038   17.3343   22.2052 H   0  0  0  0  0  0  0  0  0  0  0  0
   18.4968   19.3866   22.9047 C   0  0  0  0  0  0  0  0  0  0  0  0
   18.6848   19.3291   23.9855 H   0  0  0  0  0  0  0  0  0  0  0  0
   17.4097   19.2927   22.7789 H   0  0  0  0  0  0  0  0  0  0  0  0
   18.9199   20.7666   22.3409 C   0  0  0  0  0  0  0  0  0  0  0  0
   18.8002   20.7607   21.2498 H   0  0  0  0  0  0  0  0  0  0  0  0
   18.2164   21.5258   22.7066 H   0  0  0  0  0  0  0  0  0  0  0  0
   20.3555   21.2302   22.6784 C   0  0  0  0  0  0  0  0  0  0  0  0
   20.5521   22.1241   22.0691 H   0  0  0  0  0  0  0  0  0  0  0  0
   21.4710   20.2051   22.3541 C   0  0  0  0  0  0  0  0  0  0  0  0
   21.4352   19.9364   21.2906 H   0  0  0  0  0  0  0  0  0  0  0  0
   22.4322   20.7141   22.5025 H   0  0  0  0  0  0  0  0  0  0  0  0
   21.4642   18.9241   23.2283 C   0  0  0  0  0  0  0  0  0  0  0  0
   22.4886   18.5328   23.2884 H   0  0  0  0  0  0  0  0  0  0  0  0
   21.1902   19.1783   24.2608 H   0  0  0  0  0  0  0  0  0  0  0  0
   20.4201   21.6058   24.0509 O   0  0  0  0  0  0  0  0  0  0  0  0
   19.6879   22.2371   24.2046 H   0  0  0  0  0  0  0  0  0  0  0  0
  1  2  1  0  0  0  0
  1  3  1  0  0  0  0
  1  4  1  0  0  0  0
  4  5  1  0  0  0  0
  4  6  1  0  0  0  0
  4  7  1  0  0  0  0
  7  8  1  0  0  0  0
  7  9  1  0  0  0  0
  7 10  1  0  0  0  0
 10 11  1  0  0  0  0
 10 12  1  0  0  0  0
 10 13  1  0  0  0  0
 13 14  1  0  0  0  0
 13 15  1  0  0  0  0
 15 16  1  0  0  0  0
 15 17  1  0  0  0  0
  1 18  1  0  0  0  0
 15 18  1  0  0  0  0
 18 19  1  0  0  0  0
 18 20  1  0  0  0  0
 13 21  1  0  0  0  0
 21 22  1  0  0  0  0
M  END
> <VConfSearch Rank>
925

> <Conf_Id>
41

> <Delta U+W>
-2.114

> <U+W>
4.310

> <U>
6.598

> <W>
-2.289

> <W(PB)>
-4.294

> <W(SA)>
2.005

> <Valence>
12.082

> <Coulomb>
-7.801

> <VdW>
2.317

> <VdW6>
-9.658

> <VdW12>
11.975

> <Bond>
0.267

> <Angle>
3.051

> <Pdih>
8.764

> <Idih>
0.000

> <Tether>
0.000

$$$$
VeraChem MOL file


 22 22  0  0  0  0  0  0  0  0999 V2000     
   20.4249   19.5750   24.3461 C   0  0  0  0  0  0  0  0  0  0  0  0
   20.8607   19.7305   25.3423 H   0  0  0  0  0  0  0  0  0  0  0  0
   19.3626   19.3453   24.5071 H   0  0  0  0  0  0  0  0  0  0  0  0
   21.1502   18.3770   23.6933 C   0  0  0  0  0  0  0  0  0  0  0  0
   22.1937   18.6488   23.4842 H   0  0  0  0  0  0  0  0  0  0  0  0
   21.1931   17.5545   24.4201 H   0  0  0  0  0  0  0  0  0  0  0  0
   20.4870   17.8478   22.4028 C   0  0  0  0  0  0  0  0  0  0  0  0
   19.5243   17.3816   22.6514 H   0  0  0  0  0  0  0  0  0  0  0  0
   21.1135   17.0364   22.0087 H   0  0  0  0  0  0  0  0  0  0  0  0
   20.2919   18.9031   21.2806 C   0  0  0  0  0  0  0  0  0  0  0  0
   21.2377   19.4244   21.0851 H   0  0  0  0  0  0  0  0  0  0  0  0
   20.0543   18.3634   20.3549 H   0  0  0  0  0  0  0  0  0  0  0  0
   19.1592   19.9367   21.5101 C   0  0  0  0  0  0  0  0  0  0  0  0
   18.9392   20.3860   20.5308 H   0  0  0  0  0  0  0  0  0  0  0  0
   19.5005   21.1155   22.4583 C   0  0  0  0  0  0  0  0  0  0  0  0
   19.8259   21.9631   21.8413 H   0  0  0  0  0  0  0  0  0  0  0  0
   18.5806   21.4552   22.9521 H   0  0  0  0  0  0  0  0  0  0  0  0
   20.5855   20.8820   23.5386 C   0  0  0  0  0  0  0  0  0  0  0  0
   21.5826   20.9150   23.0792 H   0  0  0  0  0  0  0  0  0  0  0  0
   20.5541   21.7310   24.2349 H   0  0  0  0  0  0  0  0  0  0  0  0
   17.9745   19.2857   21.9614 O   0  0  0  0  0  0  0  0  0  0  0  0
   17.2879   19.9775   22.0497 H   0  0  0  0  0  0  0  0  0  0  0  0
  1  2  1  0  0  0  0
  1  3  1  0  0  0  0
  1  4  1  0  0  0  0
  4  5  1  0  0  0  0
  4  6  1  0  0  0  0
  4  7  1  0  0  0  0
  7  8  1  0  0  0  0
  7  9  1  0  0  0  0
  7 10  1  0  0  0  0
 10 11  1  0  0  0  0
 10 12  1  0  0  0  0
 10 13  1  0  0  0  0
 13 14  1  0  0  0  0
 13 15  1  0  0  0  0
 15 16  1  0  0  0  0
 15 17  1  0  0  0  0
  1 18  1  0  0  0  0
 15 18  1  0  0  0  0
 18 19  1  0  0  0  0
 18 20  1  0  0  0  0
 13 21  1  0  0  0  0
 21 22  1  0  0  0  0
M  END
> <VConfSearch Rank>
926

> <Conf_Id>
104

> <Delta U+W>
-1.172

> <U+W>
5.252

> <U>
7.482

> <W>
-2.230

> <W(PB)>
-4.220

> <W(SA)>
1.990

> <Valence>
12.309

> <Coulomb>
-7.084

> <VdW>
2.258

> <VdW6>
-9.770

> <VdW12>
12.028

> <Bond>
0.284

> <Angle>
3.491

> <Pdih>
8.535

> <Idih>
0.000

> <Tether>
0.000

$$$$
VeraChem MOL file


 22 22  0  0  0  0  0  0  0  0999 V2000     
   18.5537   19.0351   23.0155 C   0  0  0  0  0  0  0  0  0  0  0  0
   18.1936   19.1864   21.9889 H   0  0  0  0  0  0  0  0  0  0  0  0
   17.6943   18.6540   23.5840 H   0  0  0  0  0  0  0  0  0  0  0  0
   18.9848   20.3759   23.6527 C   0  0  0  0  0  0  0  0  0  0  0  0
   18.0850   20.9094   23.9888 H   0  0  0  0  0  0  0  0  0  0  0  0
   19.5553   20.1761   24.5692 H   0  0  0  0  0  0  0  0  0  0  0  0
   19.7832   21.3317   22.7304 C   0  0  0  0  0  0  0  0  0  0  0  0
   20.3991   21.9887   23.3599 H   0  0  0  0  0  0  0  0  0  0  0  0
   19.0728   21.9979   22.2221 H   0  0  0  0  0  0  0  0  0  0  0  0
   20.6795   20.6845   21.6399 C   0  0  0  0  0  0  0  0  0  0  0  0
   20.0502   20.3750   20.7954 H   0  0  0  0  0  0  0  0  0  0  0  0
   21.3389   21.4640   21.2368 H   0  0  0  0  0  0  0  0  0  0  0  0
   21.5578   19.4870   22.0694 C   0  0  0  0  0  0  0  0  0  0  0  0
   22.3823   19.4102   21.3461 H   0  0  0  0  0  0  0  0  0  0  0  0
   20.7998   18.1409   22.0273 C   0  0  0  0  0  0  0  0  0  0  0  0
   20.3907   17.9993   21.0185 H   0  0  0  0  0  0  0  0  0  0  0  0
   21.5296   17.3327   22.1662 H   0  0  0  0  0  0  0  0  0  0  0  0
   19.6614   17.9558   23.0610 C   0  0  0  0  0  0  0  0  0  0  0  0
   19.1970   16.9772   22.8781 H   0  0  0  0  0  0  0  0  0  0  0  0
   20.0834   17.8974   24.0734 H   0  0  0  0  0  0  0  0  0  0  0  0
   22.0982   19.7039   23.3637 O   0  0  0  0  0  0  0  0  0  0  0  0
   21.3131   19.8444   23.9295 H   0  0  0  0  0  0  0  0  0  0  0  0
  1  2  1  0  0  0  0
  1  3  1  0  0  0  0
  1  4  1  0  0  0  0
  4  5  1  0  0  0  0
  4  6  1  0  0  0  0
  4  7  1  0  0  0  0
  7  8  1  0  0  0  0
  7  9  1  0  0  0  0
  7 10  1  0  0  0  0
 10 11  1  0  0  0  0
 10 12  1  0  0  0  0
 10 13  1  0  0  0  0
 13 14  1  0  0  0  0
 13 15  1  0  0  0  0
 15 16  1  0  0  0  0
 15 17  1  0  0  0  0
  1 18  1  0  0  0  0
 15 18  1  0  0  0  0
 18 19  1  0  0  0  0
 18 20  1  0  0  0  0
 13 21  1  0  0  0  0
 21 22  1  0  0  0  0
M  END
> <VConfSearch Rank>
927

> <Conf_Id>
99

> <Delta U+W>
-3.852

> <U+W>
2.572

> <U>
3.922

> <W>
-1.350

> <W(PB)>
-3.345

> <W(SA)>
1.995

> <Valence>
12.571

> <Coulomb>
-10.581

> <VdW>
1.932

> <VdW6>
-10.483

> <VdW12>
12.415

> <Bond>
0.268

> <Angle>
3.728

> <Pdih>
8.575

> <Idih>
0.000

> <Tether>
0.000

$$$$
VeraChem MOL file


 22 22  0  0  0  0  0  0  0  0999 V2000     
   21.4896   19.0187   22.0071 C   0  0  0  0  0  0  0  0  0  0  0  0
   22.4000   19.1506   21.4063 H   0  0  0  0  0  0  0  0  0  0  0  0
   21.5343   17.9813   22.3647 H   0  0  0  0  0  0  0  0  0  0  0  0
   20.2644   19.2092   21.0656 C   0  0  0  0  0  0  0  0  0  0  0  0
   20.6445   19.4234   20.0572 H   0  0  0  0  0  0  0  0  0  0  0  0
   19.7135   18.2644   20.9656 H   0  0  0  0  0  0  0  0  0  0  0  0
   19.2820   20.3446   21.4509 C   0  0  0  0  0  0  0  0  0  0  0  0
   18.5854   20.4983   20.6155 H   0  0  0  0  0  0  0  0  0  0  0  0
   19.8266   21.2933   21.5338 H   0  0  0  0  0  0  0  0  0  0  0  0
   18.4393   20.1096   22.7352 C   0  0  0  0  0  0  0  0  0  0  0  0
   18.1057   21.0858   23.1099 H   0  0  0  0  0  0  0  0  0  0  0  0
   17.5206   19.5773   22.4546 H   0  0  0  0  0  0  0  0  0  0  0  0
   19.0900   19.3317   23.9056 C   0  0  0  0  0  0  0  0  0  0  0  0
   18.4386   19.4677   24.7807 H   0  0  0  0  0  0  0  0  0  0  0  0
   20.5091   19.7874   24.3260 C   0  0  0  0  0  0  0  0  0  0  0  0
   20.4202   20.7254   24.8889 H   0  0  0  0  0  0  0  0  0  0  0  0
   20.8927   19.0523   25.0460 H   0  0  0  0  0  0  0  0  0  0  0  0
   21.5757   19.9878   23.2139 C   0  0  0  0  0  0  0  0  0  0  0  0
   21.5495   21.0253   22.8582 H   0  0  0  0  0  0  0  0  0  0  0  0
   22.5667   19.8792   23.6753 H   0  0  0  0  0  0  0  0  0  0  0  0
   19.1045   17.9450   23.6058 O   0  0  0  0  0  0  0  0  0  0  0  0
   19.6927   17.8776   22.8270 H   0  0  0  0  0  0  0  0  0  0  0  0
  1  2  1  0  0  0  0
  1  3  1  0  0  0  0
  1  4  1  0  0  0  0
  4  5  1  0  0  0  0
  4  6  1  0  0  0  0
  4  7  1  0  0  0  0
  7  8  1  0  0  0  0
  7  9  1  0  0  0  0
  7 10  1  0  0  0  0
 10 11  1  0  0  0  0
 10 12  1  0  0  0  0
 10 13  1  0  0  0  0
 13 14  1  0  0  0  0
 13 15  1  0  0  0  0
 15 16  1  0  0  0  0
 15 17  1  0  0  0  0
  1 18  1  0  0  0  0
 15 18  1  0  0  0  0
 18 19  1  0  0  0  0
 18 20  1  0  0  0  0
 13 21  1  0  0  0  0
 21 22  1  0  0  0  0
M  END
> <VConfSearch Rank>
928

> <Conf_Id>
98

> <Delta U+W>
0.930

> <U+W>
7.353

> <U>
8.455

> <W>
-1.102

> <W(PB)>
-3.101

> <W(SA)>
2.000

> <Valence>
15.601

> <Coulomb>
-10.573

> <VdW>
3.427

> <VdW6>
-11.360

> <VdW12>
14.787

> <Bond>
0.471

> <Angle>
5.445

> <Pdih>
9.685

> <Idih>
0.000

> <Tether>
0.000

$$$$
VeraChem MOL file


 22 22  0  0  0  0  0  0  0  0999 V2000     
   20.8502   20.5239   23.7854 C   0  0  0  0  0  0  0  0  0  0  0  0
   19.8773   20.9642   24.0392 H   0  0  0  0  0  0  0  0  0  0  0  0
   21.5662   21.0022   24.4675 H   0  0  0  0  0  0  0  0  0  0  0  0
   21.2304   20.8971   22.3300 C   0  0  0  0  0  0  0  0  0  0  0  0
   21.2641   21.9934   22.2678 H   0  0  0  0  0  0  0  0  0  0  0  0
   22.2527   20.5557   22.1180 H   0  0  0  0  0  0  0  0  0  0  0  0
   20.2779   20.3788   21.2171 C   0  0  0  0  0  0  0  0  0  0  0  0
   20.7275   19.5161   20.7086 H   0  0  0  0  0  0  0  0  0  0  0  0
   20.2012   21.1546   20.4432 H   0  0  0  0  0  0  0  0  0  0  0  0
   18.8483   20.0104   21.6948 C   0  0  0  0  0  0  0  0  0  0  0  0
   18.4283   20.8534   22.2574 H   0  0  0  0  0  0  0  0  0  0  0  0
   18.2037   19.9127   20.8108 H   0  0  0  0  0  0  0  0  0  0  0  0
   18.7299   18.7151   22.5504 C   0  0  0  0  0  0  0  0  0  0  0  0
   18.0908   18.9386   23.4169 H   0  0  0  0  0  0  0  0  0  0  0  0
   20.0635   18.1248   23.0733 C   0  0  0  0  0  0  0  0  0  0  0  0
   19.8608   17.1580   23.5520 H   0  0  0  0  0  0  0  0  0  0  0  0
   20.7209   17.8917   22.2271 H   0  0  0  0  0  0  0  0  0  0  0  0
   20.8266   19.0080   24.0919 C   0  0  0  0  0  0  0  0  0  0  0  0
   20.3826   18.8675   25.0869 H   0  0  0  0  0  0  0  0  0  0  0  0
   21.8586   18.6395   24.1677 H   0  0  0  0  0  0  0  0  0  0  0  0
   18.0988   17.7113   21.7635 O   0  0  0  0  0  0  0  0  0  0  0  0
   17.9850   16.9286   22.3420 H   0  0  0  0  0  0  0  0  0  0  0  0
  1  2  1  0  0  0  0
  1  3  1  0  0  0  0
  1  4  1  0  0  0  0
  4  5  1  0  0  0  0
  4  6  1  0  0  0  0
  4  7  1  0  0  0  0
  7  8  1  0  0  0  0
  7  9  1  0  0  0  0
  7 10  1  0  0  0  0
 10 11  1  0  0  0  0
 10 12  1  0  0  0  0
 10 13  1  0  0  0  0
 13 14  1  0  0  0  0
 13 15  1  0  0  0  0
 15 16  1  0  0  0  0
 15 17  1  0  0  0  0
  1 18  1  0  0  0  0
 15 18  1  0  0  0  0
 18 19  1  0  0  0  0
 18 20  1  0  0  0  0
 13 21  1  0  0  0  0
 21 22  1  0  0  0  0
M  END
> <VConfSearch Rank>
929

> <Conf_Id>
141

> <Delta U+W>
0.000

> <U+W>
6.423

> <U>
8.781

> <W>
-2.358

> <W(PB)>
-4.373

> <W(SA)>
2.015

> <Valence>
13.328

> <Coulomb>
-8.387

> <VdW>
3.840

> <VdW6>
-9.744

> <VdW12>
13.584

> <Bond>
0.436

> <Angle>
3.478

> <Pdih>
9.415

> <Idih>
0.000

> <Tether>
0.000

$$$$
VeraChem MOL file


 22 22  0  0  0  0  0  0  0  0999 V2000     
   19.4089   20.8095   23.7945 C   0  0  0  0  0  0  0  0  0  0  0  0
   18.9764   19.9982   24.3956 H   0  0  0  0  0  0  0  0  0  0  0  0
   19.2192   21.7360   24.3535 H   0  0  0  0  0  0  0  0  0  0  0  0
   18.6909   20.9298   22.4286 C   0  0  0  0  0  0  0  0  0  0  0  0
   17.6677   21.2901   22.6017 H   0  0  0  0  0  0  0  0  0  0  0  0
   19.1825   21.7056   21.8259 H   0  0  0  0  0  0  0  0  0  0  0  0
   18.6091   19.6212   21.6093 C   0  0  0  0  0  0  0  0  0  0  0  0
   18.1426   19.8516   20.6418 H   0  0  0  0  0  0  0  0  0  0  0  0
   17.9287   18.9190   22.1102 H   0  0  0  0  0  0  0  0  0  0  0  0
   19.9680   18.9261   21.3495 C   0  0  0  0  0  0  0  0  0  0  0  0
   19.8069   18.1593   20.5803 H   0  0  0  0  0  0  0  0  0  0  0  0
   20.6913   19.6354   20.9270 H   0  0  0  0  0  0  0  0  0  0  0  0
   20.5455   18.2535   22.6152 C   0  0  0  0  0  0  0  0  0  0  0  0
   19.7059   17.8950   23.2279 H   0  0  0  0  0  0  0  0  0  0  0  0
   21.4239   19.1776   23.4892 C   0  0  0  0  0  0  0  0  0  0  0  0
   21.5034   18.7167   24.4822 H   0  0  0  0  0  0  0  0  0  0  0  0
   22.4446   19.1980   23.0844 H   0  0  0  0  0  0  0  0  0  0  0  0
   20.9400   20.6397   23.6567 C   0  0  0  0  0  0  0  0  0  0  0  0
   21.4270   21.0584   24.5480 H   0  0  0  0  0  0  0  0  0  0  0  0
   21.3001   21.2448   22.8135 H   0  0  0  0  0  0  0  0  0  0  0  0
   21.3352   17.1378   22.2216 O   0  0  0  0  0  0  0  0  0  0  0  0
   20.7411   16.5293   21.7344 H   0  0  0  0  0  0  0  0  0  0  0  0
  1  2  1  0  0  0  0
  1  3  1  0  0  0  0
  1  4  1  0  0  0  0
  4  5  1  0  0  0  0
  4  6  1  0  0  0  0
  4  7  1  0  0  0  0
  7  8  1  0  0  0  0
  7  9  1  0  0  0  0
  7 10  1  0  0  0  0
 10 11  1  0  0  0  0
 10 12  1  0  0  0  0
 10 13  1  0  0  0  0
 13 14  1  0  0  0  0
 13 15  1  0  0  0  0
 15 16  1  0  0  0  0
 15 17  1  0  0  0  0
  1 18  1  0  0  0  0
 15 18  1  0  0  0  0
 18 19  1  0  0  0  0
 18 20  1  0  0  0  0
 13 21  1  0  0  0  0
 21 22  1  0  0  0  0
M  END
> <VConfSearch Rank>
930

> <Conf_Id>
144

> <Delta U+W>
-3.291

> <U+W>
3.132

> <U>
5.411

> <W>
-2.279

> <W(PB)>
-4.300

> <W(SA)>
2.021

> <Valence>
11.909

> <Coulomb>
-8.733

> <VdW>
2.236

> <VdW6>
-8.936

> <VdW12>
11.172

> <Bond>
0.223

> <Angle>
2.457

> <Pdih>
9.228

> <Idih>
0.000

> <Tether>
0.000

$$$$
VeraChem MOL file


 22 22  0  0  0  0  0  0  0  0999 V2000     
   18.7800   18.5575   23.4700 C   0  0  0  0  0  0  0  0  0  0  0  0
   18.1237   17.7324   23.7789 H   0  0  0  0  0  0  0  0  0  0  0  0
   18.6025   19.3714   24.1860 H   0  0  0  0  0  0  0  0  0  0  0  0
   18.3726   18.9829   22.0399 C   0  0  0  0  0  0  0  0  0  0  0  0
   18.8454   18.3115   21.3101 H   0  0  0  0  0  0  0  0  0  0  0  0
   17.2912   18.8321   21.9188 H   0  0  0  0  0  0  0  0  0  0  0  0
   18.6924   20.4531   21.6763 C   0  0  0  0  0  0  0  0  0  0  0  0
   17.8847   21.0974   22.0496 H   0  0  0  0  0  0  0  0  0  0  0  0
   18.6679   20.5481   20.5820 H   0  0  0  0  0  0  0  0  0  0  0  0
   20.0374   21.0133   22.2009 C   0  0  0  0  0  0  0  0  0  0  0  0
   20.2819   21.9070   21.6111 H   0  0  0  0  0  0  0  0  0  0  0  0
   19.9038   21.3646   23.2322 H   0  0  0  0  0  0  0  0  0  0  0  0
   21.2211   20.0214   22.1485 C   0  0  0  0  0  0  0  0  0  0  0  0
   21.1194   19.3730   21.2666 H   0  0  0  0  0  0  0  0  0  0  0  0
   21.3224   19.1520   23.4224 C   0  0  0  0  0  0  0  0  0  0  0  0
   22.3057   18.6630   23.4371 H   0  0  0  0  0  0  0  0  0  0  0  0
   21.2915   19.7975   24.3098 H   0  0  0  0  0  0  0  0  0  0  0  0
   20.2408   18.0539   23.5561 C   0  0  0  0  0  0  0  0  0  0  0  0
   20.4070   17.2841   22.7901 H   0  0  0  0  0  0  0  0  0  0  0  0
   20.3811   17.5498   24.5220 H   0  0  0  0  0  0  0  0  0  0  0  0
   22.4249   20.7680   22.0329 O   0  0  0  0  0  0  0  0  0  0  0  0
   22.4786   21.3317   22.8320 H   0  0  0  0  0  0  0  0  0  0  0  0
  1  2  1  0  0  0  0
  1  3  1  0  0  0  0
  1  4  1  0  0  0  0
  4  5  1  0  0  0  0
  4  6  1  0  0  0  0
  4  7  1  0  0  0  0
  7  8  1  0  0  0  0
  7  9  1  0  0  0  0
  7 10  1  0  0  0  0
 10 11  1  0  0  0  0
 10 12  1  0  0  0  0
 10 13  1  0  0  0  0
 13 14  1  0  0  0  0
 13 15  1  0  0  0  0
 15 16  1  0  0  0  0
 15 17  1  0  0  0  0
  1 18  1  0  0  0  0
 15 18  1  0  0  0  0
 18 19  1  0  0  0  0
 18 20  1  0  0  0  0
 13 21  1  0  0  0  0
 21 22  1  0  0  0  0
M  END
> <VConfSearch Rank>
931

> <Conf_Id>
76

> <Delta U+W>
-3.175

> <U+W>
3.248

> <U>
5.336

> <W>
-2.088

> <W(PB)>
-4.098

> <W(SA)>
2.010

> <Valence>
12.390

> <Coulomb>
-9.270

> <VdW>
2.216

> <VdW6>
-8.967

> <VdW12>
11.183

> <Bond>
0.218

> <Angle>
2.426

> <Pdih>
9.745

> <Idih>
0.000

> <Tether>
0.000

$$$$
VeraChem MOL file


 22 22  0  0  0  0  0  0  0  0999 V2000     
   21.5149   19.4028   21.5037 C   0  0  0  0  0  0  0  0  0  0  0  0
   21.8153   20.1171   20.7250 H   0  0  0  0  0  0  0  0  0  0  0  0
   22.2840   18.6184   21.5015 H   0  0  0  0  0  0  0  0  0  0  0  0
   20.1605   18.7783   21.0910 C   0  0  0  0  0  0  0  0  0  0  0  0
   19.5420   19.5387   20.5954 H   0  0  0  0  0  0  0  0  0  0  0  0
   20.3577   18.0156   20.3254 H   0  0  0  0  0  0  0  0  0  0  0  0
   19.3578   18.1349   22.2457 C   0  0  0  0  0  0  0  0  0  0  0  0
   20.0267   17.6345   22.9591 H   0  0  0  0  0  0  0  0  0  0  0  0
   18.7212   17.3471   21.8209 H   0  0  0  0  0  0  0  0  0  0  0  0
   18.4353   19.1467   22.9718 C   0  0  0  0  0  0  0  0  0  0  0  0
   17.8308   19.6818   22.2282 H   0  0  0  0  0  0  0  0  0  0  0  0
   17.7183   18.5877   23.5874 H   0  0  0  0  0  0  0  0  0  0  0  0
   19.1376   20.1816   23.8800 C   0  0  0  0  0  0  0  0  0  0  0  0
   18.3760   20.9215   24.1654 H   0  0  0  0  0  0  0  0  0  0  0  0
   20.3018   20.9588   23.2159 C   0  0  0  0  0  0  0  0  0  0  0  0
   19.9415   21.4689   22.3133 H   0  0  0  0  0  0  0  0  0  0  0  0
   20.6034   21.7569   23.9064 H   0  0  0  0  0  0  0  0  0  0  0  0
   21.5548   20.1087   22.8801 C   0  0  0  0  0  0  0  0  0  0  0  0
   22.4392   20.7597   22.8995 H   0  0  0  0  0  0  0  0  0  0  0  0
   21.7258   19.3625   23.6671 H   0  0  0  0  0  0  0  0  0  0  0  0
   19.5932   19.5348   25.0641 O   0  0  0  0  0  0  0  0  0  0  0  0
   20.0745   20.2108   25.5835 H   0  0  0  0  0  0  0  0  0  0  0  0
  1  2  1  0  0  0  0
  1  3  1  0  0  0  0
  1  4  1  0  0  0  0
  4  5  1  0  0  0  0
  4  6  1  0  0  0  0
  4  7  1  0  0  0  0
  7  8  1  0  0  0  0
  7  9  1  0  0  0  0
  7 10  1  0  0  0  0
 10 11  1  0  0  0  0
 10 12  1  0  0  0  0
 10 13  1  0  0  0  0
 13 14  1  0  0  0  0
 13 15  1  0  0  0  0
 15 16  1  0  0  0  0
 15 17  1  0  0  0  0
  1 18  1  0  0  0  0
 15 18  1  0  0  0  0
 18 19  1  0  0  0  0
 18 20  1  0  0  0  0
 13 21  1  0  0  0  0
 21 22  1  0  0  0  0
M  END
> <VConfSearch Rank>
932

> <Conf_Id>
95

> <Delta U+W>
-2.289

> <U+W>
4.134

> <U>
6.373

> <W>
-2.240

> <W(PB)>
-4.254

> <W(SA)>
2.015

> <Valence>
12.093

> <Coulomb>
-8.058

> <VdW>
2.339

> <VdW6>
-9.683

> <VdW12>
12.022

> <Bond>
0.268

> <Angle>
3.005

> <Pdih>
8.820

> <Idih>
0.000

> <Tether>
0.000

$$$$
VeraChem MOL file


 22 22  0  0  0  0  0  0  0  0999 V2000     
   19.0509   19.2098   24.2848 C   0  0  0  0  0  0  0  0  0  0  0  0
   17.9667   19.2917   24.4421 H   0  0  0  0  0  0  0  0  0  0  0  0
   19.4567   18.7945   25.2174 H   0  0  0  0  0  0  0  0  0  0  0  0
   19.6195   20.6345   24.0817 C   0  0  0  0  0  0  0  0  0  0  0  0
   18.8947   21.2414   23.5226 H   0  0  0  0  0  0  0  0  0  0  0  0
   19.7017   21.1108   25.0682 H   0  0  0  0  0  0  0  0  0  0  0  0
   20.9950   20.6969   23.3778 C   0  0  0  0  0  0  0  0  0  0  0  0
   21.6381   19.8653   23.6967 H   0  0  0  0  0  0  0  0  0  0  0  0
   21.5018   21.6159   23.7020 H   0  0  0  0  0  0  0  0  0  0  0  0
   20.8744   20.7438   21.8336 C   0  0  0  0  0  0  0  0  0  0  0  0
   20.1598   21.5284   21.5531 H   0  0  0  0  0  0  0  0  0  0  0  0
   21.8375   21.0647   21.4159 H   0  0  0  0  0  0  0  0  0  0  0  0
   20.4584   19.4255   21.1416 C   0  0  0  0  0  0  0  0  0  0  0  0
   20.2504   19.6707   20.0901 H   0  0  0  0  0  0  0  0  0  0  0  0
   19.1829   18.7568   21.7129 C   0  0  0  0  0  0  0  0  0  0  0  0
   18.3384   19.4560   21.6618 H   0  0  0  0  0  0  0  0  0  0  0  0
   18.9251   17.9258   21.0438 H   0  0  0  0  0  0  0  0  0  0  0  0
   19.3217   18.1924   23.1508 C   0  0  0  0  0  0  0  0  0  0  0  0
   18.6181   17.3577   23.2713 H   0  0  0  0  0  0  0  0  0  0  0  0
   20.3187   17.7523   23.2844 H   0  0  0  0  0  0  0  0  0  0  0  0
   21.5486   18.5095   21.1763 O   0  0  0  0  0  0  0  0  0  0  0  0
   22.3274   18.9855   20.8225 H   0  0  0  0  0  0  0  0  0  0  0  0
  1  2  1  0  0  0  0
  1  3  1  0  0  0  0
  1  4  1  0  0  0  0
  4  5  1  0  0  0  0
  4  6  1  0  0  0  0
  4  7  1  0  0  0  0
  7  8  1  0  0  0  0
  7  9  1  0  0  0  0
  7 10  1  0  0  0  0
 10 11  1  0  0  0  0
 10 12  1  0  0  0  0
 10 13  1  0  0  0  0
 13 14  1  0  0  0  0
 13 15  1  0  0  0  0
 15 16  1  0  0  0  0
 15 17  1  0  0  0  0
  1 18  1  0  0  0  0
 15 18  1  0  0  0  0
 18 19  1  0  0  0  0
 18 20  1  0  0  0  0
 13 21  1  0  0  0  0
 21 22  1  0  0  0  0
M  END
> <VConfSearch Rank>
933

> <Conf_Id>
41

> <Delta U+W>
-2.114

> <U+W>
4.310

> <U>
6.598

> <W>
-2.289

> <W(PB)>
-4.294

> <W(SA)>
2.005

> <Valence>
12.082

> <Coulomb>
-7.801

> <VdW>
2.317

> <VdW6>
-9.658

> <VdW12>
11.975

> <Bond>
0.267

> <Angle>
3.051

> <Pdih>
8.764

> <Idih>
0.000

> <Tether>
0.000

$$$$
VeraChem MOL file


 22 22  0  0  0  0  0  0  0  0999 V2000     
   20.5003   20.8188   23.6970 C   0  0  0  0  0  0  0  0  0  0  0  0
   20.6348   21.8008   24.1704 H   0  0  0  0  0  0  0  0  0  0  0  0
   20.7216   20.0709   24.4708 H   0  0  0  0  0  0  0  0  0  0  0  0
   21.5080   20.7130   22.5306 C   0  0  0  0  0  0  0  0  0  0  0  0
   21.2326   21.4253   21.7411 H   0  0  0  0  0  0  0  0  0  0  0  0
   22.4961   21.0300   22.8908 H   0  0  0  0  0  0  0  0  0  0  0  0
   21.6453   19.2993   21.9240 C   0  0  0  0  0  0  0  0  0  0  0  0
   22.1218   18.6327   22.6551 H   0  0  0  0  0  0  0  0  0  0  0  0
   22.3462   19.3596   21.0807 H   0  0  0  0  0  0  0  0  0  0  0  0
   20.3211   18.6686   21.4143 C   0  0  0  0  0  0  0  0  0  0  0  0
   19.8052   19.3668   20.7430 H   0  0  0  0  0  0  0  0  0  0  0  0
   20.5833   17.8012   20.7949 H   0  0  0  0  0  0  0  0  0  0  0  0
   19.3418   18.1693   22.5078 C   0  0  0  0  0  0  0  0  0  0  0  0
   18.6383   17.4847   22.0123 H   0  0  0  0  0  0  0  0  0  0  0  0
   18.4746   19.2599   23.1888 C   0  0  0  0  0  0  0  0  0  0  0  0
   17.5066   19.2943   22.6722 H   0  0  0  0  0  0  0  0  0  0  0  0
   18.2427   18.9439   24.2143 H   0  0  0  0  0  0  0  0  0  0  0  0
   19.0324   20.7043   23.2298 C   0  0  0  0  0  0  0  0  0  0  0  0
   18.9179   21.1765   22.2447 H   0  0  0  0  0  0  0  0  0  0  0  0
   18.4002   21.2890   23.9117 H   0  0  0  0  0  0  0  0  0  0  0  0
   20.0415   17.4238   23.5006 O   0  0  0  0  0  0  0  0  0  0  0  0
   19.3715   17.1029   24.1378 H   0  0  0  0  0  0  0  0  0  0  0  0
  1  2  1  0  0  0  0
  1  3  1  0  0  0  0
  1  4  1  0  0  0  0
  4  5  1  0  0  0  0
  4  6  1  0  0  0  0
  4  7  1  0  0  0  0
  7  8  1  0  0  0  0
  7  9  1  0  0  0  0
  7 10  1  0  0  0  0
 10 11  1  0  0  0  0
 10 12  1  0  0  0  0
 10 13  1  0  0  0  0
 13 14  1  0  0  0  0
 13 15  1  0  0  0  0
 15 16  1  0  0  0  0
 15 17  1  0  0  0  0
  1 18  1  0  0  0  0
 15 18  1  0  0  0  0
 18 19  1  0  0  0  0
 18 20  1  0  0  0  0
 13 21  1  0  0  0  0
 21 22  1  0  0  0  0
M  END
> <VConfSearch Rank>
934

> <Conf_Id>
104

> <Delta U+W>
-1.172

> <U+W>
5.252

> <U>
7.482

> <W>
-2.230

> <W(PB)>
-4.220

> <W(SA)>
1.990

> <Valence>
12.309

> <Coulomb>
-7.084

> <VdW>
2.258

> <VdW6>
-9.770

> <VdW12>
12.028

> <Bond>
0.284

> <Angle>
3.491

> <Pdih>
8.535

> <Idih>
0.000

> <Tether>
0.000

$$$$
VeraChem MOL file


 22 22  0  0  0  0  0  0  0  0999 V2000     
   20.1787   19.4956   24.3073 C   0  0  0  0  0  0  0  0  0  0  0  0
   20.4164   20.5627   24.4142 H   0  0  0  0  0  0  0  0  0  0  0  0
   20.1993   19.0783   25.3233 H   0  0  0  0  0  0  0  0  0  0  0  0
   21.2608   18.7694   23.4759 C   0  0  0  0  0  0  0  0  0  0  0  0
   22.1244   18.5679   24.1246 H   0  0  0  0  0  0  0  0  0  0  0  0
   20.8895   17.7790   23.1817 H   0  0  0  0  0  0  0  0  0  0  0  0
   21.7750   19.5333   22.2294 C   0  0  0  0  0  0  0  0  0  0  0  0
   22.1570   18.8003   21.5054 H   0  0  0  0  0  0  0  0  0  0  0  0
   22.6471   20.1326   22.5245 H   0  0  0  0  0  0  0  0  0  0  0  0
   20.7756   20.4826   21.5142 C   0  0  0  0  0  0  0  0  0  0  0  0
   20.7076   21.4223   22.0775 H   0  0  0  0  0  0  0  0  0  0  0  0
   21.2070   20.7596   20.5436 H   0  0  0  0  0  0  0  0  0  0  0  0
   19.3466   19.9460   21.2694 C   0  0  0  0  0  0  0  0  0  0  0  0
   18.9141   20.5318   20.4455 H   0  0  0  0  0  0  0  0  0  0  0  0
   18.4168   20.1365   22.4890 C   0  0  0  0  0  0  0  0  0  0  0  0
   18.4069   21.2000   22.7609 H   0  0  0  0  0  0  0  0  0  0  0  0
   17.3908   19.9018   22.1770 H   0  0  0  0  0  0  0  0  0  0  0  0
   18.7490   19.2995   23.7491 C   0  0  0  0  0  0  0  0  0  0  0  0
   18.0316   19.5746   24.5342 H   0  0  0  0  0  0  0  0  0  0  0  0
   18.5708   18.2348   23.5467 H   0  0  0  0  0  0  0  0  0  0  0  0
   19.3852   18.5784   20.8924 O   0  0  0  0  0  0  0  0  0  0  0  0
   19.8534   18.1405   21.6310 H   0  0  0  0  0  0  0  0  0  0  0  0
  1  2  1  0  0  0  0
  1  3  1  0  0  0  0
  1  4  1  0  0  0  0
  4  5  1  0  0  0  0
  4  6  1  0  0  0  0
  4  7  1  0  0  0  0
  7  8  1  0  0  0  0
  7  9  1  0  0  0  0
  7 10  1  0  0  0  0
 10 11  1  0  0  0  0
 10 12  1  0  0  0  0
 10 13  1  0  0  0  0
 13 14  1  0  0  0  0
 13 15  1  0  0  0  0
 15 16  1  0  0  0  0
 15 17  1  0  0  0  0
  1 18  1  0  0  0  0
 15 18  1  0  0  0  0
 18 19  1  0  0  0  0
 18 20  1  0  0  0  0
 13 21  1  0  0  0  0
 21 22  1  0  0  0  0
M  END
> <VConfSearch Rank>
935

> <Conf_Id>
99

> <Delta U+W>
-3.852

> <U+W>
2.572

> <U>
3.922

> <W>
-1.350

> <W(PB)>
-3.345

> <W(SA)>
1.995

> <Valence>
12.571

> <Coulomb>
-10.581

> <VdW>
1.932

> <VdW6>
-10.483

> <VdW12>
12.415

> <Bond>
0.268

> <Angle>
3.728

> <Pdih>
8.575

> <Idih>
0.000

> <Tether>
0.000

$$$$
VeraChem MOL file


 22 22  0  0  0  0  0  0  0  0999 V2000     
   18.7748   19.2167   23.6509 C   0  0  0  0  0  0  0  0  0  0  0  0
   17.9644   18.5461   23.9685 H   0  0  0  0  0  0  0  0  0  0  0  0
   18.7096   20.0796   24.3271 H   0  0  0  0  0  0  0  0  0  0  0  0
   18.4826   19.6589   22.1870 C   0  0  0  0  0  0  0  0  0  0  0  0
   17.5456   19.1799   21.8711 H   0  0  0  0  0  0  0  0  0  0  0  0
   18.2754   20.7368   22.1516 H   0  0  0  0  0  0  0  0  0  0  0  0
   19.5701   19.3048   21.1408 C   0  0  0  0  0  0  0  0  0  0  0  0
   19.1608   19.4918   20.1387 H   0  0  0  0  0  0  0  0  0  0  0  0
   19.7663   18.2256   21.1614 H   0  0  0  0  0  0  0  0  0  0  0  0
   20.9095   20.0837   21.2601 C   0  0  0  0  0  0  0  0  0  0  0  0
   21.6925   19.4979   20.7616 H   0  0  0  0  0  0  0  0  0  0  0  0
   20.8249   21.0103   20.6768 H   0  0  0  0  0  0  0  0  0  0  0  0
   21.4099   20.4671   22.6746 C   0  0  0  0  0  0  0  0  0  0  0  0
   22.4531   20.7966   22.5658 H   0  0  0  0  0  0  0  0  0  0  0  0
   21.4032   19.3370   23.7333 C   0  0  0  0  0  0  0  0  0  0  0  0
   22.2447   18.6630   23.5273 H   0  0  0  0  0  0  0  0  0  0  0  0
   21.6289   19.7938   24.7061 H   0  0  0  0  0  0  0  0  0  0  0  0
   20.1174   18.4770   23.8816 C   0  0  0  0  0  0  0  0  0  0  0  0
   20.1776   17.6039   23.2202 H   0  0  0  0  0  0  0  0  0  0  0  0
   20.1106   18.0550   24.8958 H   0  0  0  0  0  0  0  0  0  0  0  0
   20.6685   21.5763   23.1575 O   0  0  0  0  0  0  0  0  0  0  0  0
   19.7555   21.2341   23.2364 H   0  0  0  0  0  0  0  0  0  0  0  0
  1  2  1  0  0  0  0
  1  3  1  0  0  0  0
  1  4  1  0  0  0  0
  4  5  1  0  0  0  0
  4  6  1  0  0  0  0
  4  7  1  0  0  0  0
  7  8  1  0  0  0  0
  7  9  1  0  0  0  0
  7 10  1  0  0  0  0
 10 11  1  0  0  0  0
 10 12  1  0  0  0  0
 10 13  1  0  0  0  0
 13 14  1  0  0  0  0
 13 15  1  0  0  0  0
 15 16  1  0  0  0  0
 15 17  1  0  0  0  0
  1 18  1  0  0  0  0
 15 18  1  0  0  0  0
 18 19  1  0  0  0  0
 18 20  1  0  0  0  0
 13 21  1  0  0  0  0
 21 22  1  0  0  0  0
M  END
> <VConfSearch Rank>
936

> <Conf_Id>
98

> <Delta U+W>
0.930

> <U+W>
7.353

> <U>
8.455

> <W>
-1.102

> <W(PB)>
-3.101

> <W(SA)>
2.000

> <Valence>
15.601

> <Coulomb>
-10.573

> <VdW>
3.427

> <VdW6>
-11.360

> <VdW12>
14.787

> <Bond>
0.471

> <Angle>
5.445

> <Pdih>
9.685

> <Idih>
0.000

> <Tether>
0.000

$$$$
VeraChem MOL file


 22 22  0  0  0  0  0  0  0  0999 V2000     
   20.2827   18.2950   23.8162 C   0  0  0  0  0  0  0  0  0  0  0  0
   21.1779   18.0222   23.2425 H   0  0  0  0  0  0  0  0  0  0  0  0
   20.2858   17.6239   24.6858 H   0  0  0  0  0  0  0  0  0  0  0  0
   19.0133   18.0066   22.9750 C   0  0  0  0  0  0  0  0  0  0  0  0
   19.0151   16.9357   22.7303 H   0  0  0  0  0  0  0  0  0  0  0  0
   18.1189   18.1694   23.5915 H   0  0  0  0  0  0  0  0  0  0  0  0
   18.8720   18.8051   21.6494 C   0  0  0  0  0  0  0  0  0  0  0  0
   18.1414   19.6149   21.7740 H   0  0  0  0  0  0  0  0  0  0  0  0
   18.4309   18.1402   20.8945 H   0  0  0  0  0  0  0  0  0  0  0  0
   20.1968   19.3855   21.0875 C   0  0  0  0  0  0  0  0  0  0  0  0
   20.9431   18.5839   21.0253 H   0  0  0  0  0  0  0  0  0  0  0  0
   20.0251   19.6919   20.0468 H   0  0  0  0  0  0  0  0  0  0  0  0
   20.8006   20.5863   21.8733 C   0  0  0  0  0  0  0  0  0  0  0  0
   21.8766   20.4002   22.0021 H   0  0  0  0  0  0  0  0  0  0  0  0
   20.1870   20.8590   23.2695 C   0  0  0  0  0  0  0  0  0  0  0  0
   20.6060   21.7930   23.6657 H   0  0  0  0  0  0  0  0  0  0  0  0
   19.1115   21.0489   23.1694 H   0  0  0  0  0  0  0  0  0  0  0  0
   20.4191   19.7493   24.3252 C   0  0  0  0  0  0  0  0  0  0  0  0
   21.4245   19.8691   24.7516 H   0  0  0  0  0  0  0  0  0  0  0  0
   19.7186   19.9074   25.1564 H   0  0  0  0  0  0  0  0  0  0  0  0
   20.6302   21.7655   21.0951 O   0  0  0  0  0  0  0  0  0  0  0  0
   21.0682   22.4928   21.5844 H   0  0  0  0  0  0  0  0  0  0  0  0
  1  2  1  0  0  0  0
  1  3  1  0  0  0  0
  1  4  1  0  0  0  0
  4  5  1  0  0  0  0
  4  6  1  0  0  0  0
  4  7  1  0  0  0  0
  7  8  1  0  0  0  0
  7  9  1  0  0  0  0
  7 10  1  0  0  0  0
 10 11  1  0  0  0  0
 10 12  1  0  0  0  0
 10 13  1  0  0  0  0
 13 14  1  0  0  0  0
 13 15  1  0  0  0  0
 15 16  1  0  0  0  0
 15 17  1  0  0  0  0
  1 18  1  0  0  0  0
 15 18  1  0  0  0  0
 18 19  1  0  0  0  0
 18 20  1  0  0  0  0
 13 21  1  0  0  0  0
 21 22  1  0  0  0  0
M  END
> <VConfSearch Rank>
937

> <Conf_Id>
141

> <Delta U+W>
0.000

> <U+W>
6.423

> <U>
8.781

> <W>
-2.358

> <W(PB)>
-4.373

> <W(SA)>
2.015

> <Valence>
13.328

> <Coulomb>
-8.387

> <VdW>
3.840

> <VdW6>
-9.744

> <VdW12>
13.584

> <Bond>
0.436

> <Angle>
3.478

> <Pdih>
9.415

> <Idih>
0.000

> <Tether>
0.000

$$$$
VeraChem MOL file


 22 22  0  0  0  0  0  0  0  0999 V2000     
   19.8078   20.8576   23.8721 C   0  0  0  0  0  0  0  0  0  0  0  0
   20.0951   20.1223   24.6359 H   0  0  0  0  0  0  0  0  0  0  0  0
   19.6801   21.8115   24.4018 H   0  0  0  0  0  0  0  0  0  0  0  0
   18.4469   20.4893   23.2333 C   0  0  0  0  0  0  0  0  0  0  0  0
   17.6594   20.6197   23.9880 H   0  0  0  0  0  0  0  0  0  0  0  0
   18.2147   21.2052   22.4330 H   0  0  0  0  0  0  0  0  0  0  0  0
   18.3478   19.0503   22.6767 C   0  0  0  0  0  0  0  0  0  0  0  0
   17.3675   18.9367   22.1940 H   0  0  0  0  0  0  0  0  0  0  0  0
   18.3558   18.3352   23.5106 H   0  0  0  0  0  0  0  0  0  0  0  0
   19.4480   18.6661   21.6573 C   0  0  0  0  0  0  0  0  0  0  0  0
   19.1394   17.7304   21.1728 H   0  0  0  0  0  0  0  0  0  0  0  0
   19.5148   19.4161   20.8585 H   0  0  0  0  0  0  0  0  0  0  0  0
   20.8281   18.4566   22.3198 C   0  0  0  0  0  0  0  0  0  0  0  0
   20.6673   18.0522   23.3295 H   0  0  0  0  0  0  0  0  0  0  0  0
   21.6831   19.7385   22.4413 C   0  0  0  0  0  0  0  0  0  0  0  0
   22.4637   19.5465   23.1888 H   0  0  0  0  0  0  0  0  0  0  0  0
   22.2105   19.9147   21.4943 H   0  0  0  0  0  0  0  0  0  0  0  0
   20.9338   21.0384   22.8274 C   0  0  0  0  0  0  0  0  0  0  0  0
   21.6717   21.7522   23.2181 H   0  0  0  0  0  0  0  0  0  0  0  0
   20.5215   21.5070   21.9235 H   0  0  0  0  0  0  0  0  0  0  0  0
   21.5632   17.5071   21.5573 O   0  0  0  0  0  0  0  0  0  0  0  0
   21.0390   16.6790   21.5566 H   0  0  0  0  0  0  0  0  0  0  0  0
  1  2  1  0  0  0  0
  1  3  1  0  0  0  0
  1  4  1  0  0  0  0
  4  5  1  0  0  0  0
  4  6  1  0  0  0  0
  4  7  1  0  0  0  0
  7  8  1  0  0  0  0
  7  9  1  0  0  0  0
  7 10  1  0  0  0  0
 10 11  1  0  0  0  0
 10 12  1  0  0  0  0
 10 13  1  0  0  0  0
 13 14  1  0  0  0  0
 13 15  1  0  0  0  0
 15 16  1  0  0  0  0
 15 17  1  0  0  0  0
  1 18  1  0  0  0  0
 15 18  1  0  0  0  0
 18 19  1  0  0  0  0
 18 20  1  0  0  0  0
 13 21  1  0  0  0  0
 21 22  1  0  0  0  0
M  END
> <VConfSearch Rank>
938

> <Conf_Id>
144

> <Delta U+W>
-3.291

> <U+W>
3.132

> <U>
5.411

> <W>
-2.279

> <W(PB)>
-4.300

> <W(SA)>
2.021

> <Valence>
11.909

> <Coulomb>
-8.733

> <VdW>
2.236

> <VdW6>
-8.936

> <VdW12>
11.172

> <Bond>
0.223

> <Angle>
2.457

> <Pdih>
9.228

> <Idih>
0.000

> <Tether>
0.000

$$$$
VeraChem MOL file


 22 22  0  0  0  0  0  0  0  0999 V2000     
   20.7066   18.3538   21.6648 C   0  0  0  0  0  0  0  0  0  0  0  0
   21.0519   17.4096   21.2220 H   0  0  0  0  0  0  0  0  0  0  0  0
   21.1509   19.1545   21.0581 H   0  0  0  0  0  0  0  0  0  0  0  0
   21.2222   18.4156   23.1217 C   0  0  0  0  0  0  0  0  0  0  0  0
   20.5471   17.8439   23.7730 H   0  0  0  0  0  0  0  0  0  0  0  0
   22.1903   17.8993   23.1782 H   0  0  0  0  0  0  0  0  0  0  0  0
   21.4090   19.8425   23.6919 C   0  0  0  0  0  0  0  0  0  0  0  0
   22.3882   20.2280   23.3765 H   0  0  0  0  0  0  0  0  0  0  0  0
   21.4558   19.7700   24.7871 H   0  0  0  0  0  0  0  0  0  0  0  0
   20.3321   20.8845   23.3012 C   0  0  0  0  0  0  0  0  0  0  0  0
   20.3958   21.7170   24.0150 H   0  0  0  0  0  0  0  0  0  0  0  0
   20.5829   21.3123   22.3219 H   0  0  0  0  0  0  0  0  0  0  0  0
   18.8849   20.3442   23.2672 C   0  0  0  0  0  0  0  0  0  0  0  0
   18.7578   19.5822   24.0493 H   0  0  0  0  0  0  0  0  0  0  0  0
   18.5083   19.7449   21.8931 C   0  0  0  0  0  0  0  0  0  0  0  0
   17.4184   19.6167   21.8522 H   0  0  0  0  0  0  0  0  0  0  0  0
   18.7595   20.4610   21.0999 H   0  0  0  0  0  0  0  0  0  0  0  0
   19.1621   18.3804   21.5703 C   0  0  0  0  0  0  0  0  0  0  0  0
   18.7428   17.6102   22.2320 H   0  0  0  0  0  0  0  0  0  0  0  0
   18.8686   18.0917   20.5518 H   0  0  0  0  0  0  0  0  0  0  0  0
   17.9986   21.4239   23.5299 O   0  0  0  0  0  0  0  0  0  0  0  0
   18.1421   22.0794   22.8165 H   0  0  0  0  0  0  0  0  0  0  0  0
  1  2  1  0  0  0  0
  1  3  1  0  0  0  0
  1  4  1  0  0  0  0
  4  5  1  0  0  0  0
  4  6  1  0  0  0  0
  4  7  1  0  0  0  0
  7  8  1  0  0  0  0
  7  9  1  0  0  0  0
  7 10  1  0  0  0  0
 10 11  1  0  0  0  0
 10 12  1  0  0  0  0
 10 13  1  0  0  0  0
 13 14  1  0  0  0  0
 13 15  1  0  0  0  0
 15 16  1  0  0  0  0
 15 17  1  0  0  0  0
  1 18  1  0  0  0  0
 15 18  1  0  0  0  0
 18 19  1  0  0  0  0
 18 20  1  0  0  0  0
 13 21  1  0  0  0  0
 21 22  1  0  0  0  0
M  END
> <VConfSearch Rank>
939

> <Conf_Id>
76

> <Delta U+W>
-3.175

> <U+W>
3.248

> <U>
5.336

> <W>
-2.088

> <W(PB)>
-4.098

> <W(SA)>
2.010

> <Valence>
12.390

> <Coulomb>
-9.270

> <VdW>
2.216

> <VdW6>
-8.967

> <VdW12>
11.183

> <Bond>
0.218

> <Angle>
2.426

> <Pdih>
9.745

> <Idih>
0.000

> <Tether>
0.000

$$$$
VeraChem MOL file


 22 22  0  0  0  0  0  0  0  0999 V2000     
   21.4560   19.7352   21.4382 C   0  0  0  0  0  0  0  0  0  0  0  0
   22.0867   18.9349   21.0276 H   0  0  0  0  0  0  0  0  0  0  0  0
   21.7499   20.6496   20.9051 H   0  0  0  0  0  0  0  0  0  0  0  0
   21.7968   19.8980   22.9389 C   0  0  0  0  0  0  0  0  0  0  0  0
   22.0096   18.9129   23.3755 H   0  0  0  0  0  0  0  0  0  0  0  0
   22.7367   20.4617   23.0142 H   0  0  0  0  0  0  0  0  0  0  0  0
   20.7144   20.6115   23.7820 C   0  0  0  0  0  0  0  0  0  0  0  0
   20.2401   21.4208   23.2103 H   0  0  0  0  0  0  0  0  0  0  0  0
   21.2095   21.0919   24.6367 H   0  0  0  0  0  0  0  0  0  0  0  0
   19.6493   19.6347   24.3418 C   0  0  0  0  0  0  0  0  0  0  0  0
   20.1542   18.8002   24.8450 H   0  0  0  0  0  0  0  0  0  0  0  0
   19.0790   20.1500   25.1258 H   0  0  0  0  0  0  0  0  0  0  0  0
   18.6422   19.0626   23.3183 C   0  0  0  0  0  0  0  0  0  0  0  0
   18.0869   18.2646   23.8320 H   0  0  0  0  0  0  0  0  0  0  0  0
   19.2749   18.4346   22.0512 C   0  0  0  0  0  0  0  0  0  0  0  0
   19.9744   17.6394   22.3397 H   0  0  0  0  0  0  0  0  0  0  0  0
   18.4725   17.9348   21.4934 H   0  0  0  0  0  0  0  0  0  0  0  0
   19.9761   19.4376   21.0984 C   0  0  0  0  0  0  0  0  0  0  0  0
   19.9387   19.0388   20.0757 H   0  0  0  0  0  0  0  0  0  0  0  0
   19.4139   20.3800   21.0635 H   0  0  0  0  0  0  0  0  0  0  0  0
   17.7168   20.0807   22.9504 O   0  0  0  0  0  0  0  0  0  0  0  0
   17.1334   19.6933   22.2664 H   0  0  0  0  0  0  0  0  0  0  0  0
  1  2  1  0  0  0  0
  1  3  1  0  0  0  0
  1  4  1  0  0  0  0
  4  5  1  0  0  0  0
  4  6  1  0  0  0  0
  4  7  1  0  0  0  0
  7  8  1  0  0  0  0
  7  9  1  0  0  0  0
  7 10  1  0  0  0  0
 10 11  1  0  0  0  0
 10 12  1  0  0  0  0
 10 13  1  0  0  0  0
 13 14  1  0  0  0  0
 13 15  1  0  0  0  0
 15 16  1  0  0  0  0
 15 17  1  0  0  0  0
  1 18  1  0  0  0  0
 15 18  1  0  0  0  0
 18 19  1  0  0  0  0
 18 20  1  0  0  0  0
 13 21  1  0  0  0  0
 21 22  1  0  0  0  0
M  END
> <VConfSearch Rank>
940

> <Conf_Id>
95

> <Delta U+W>
-2.289

> <U+W>
4.134

> <U>
6.373

> <W>
-2.240

> <W(PB)>
-4.254

> <W(SA)>
2.015

> <Valence>
12.093

> <Coulomb>
-8.058

> <VdW>
2.339

> <VdW6>
-9.683

> <VdW12>
12.022

> <Bond>
0.268

> <Angle>
3.005

> <Pdih>
8.820

> <Idih>
0.000

> <Tether>
0.000

$$$$
VeraChem MOL file


 22 22  0  0  0  0  0  0  0  0999 V2000     
   21.0865   18.1053   22.2093 C   0  0  0  0  0  0  0  0  0  0  0  0
   21.0846   17.5694   21.2504 H   0  0  0  0  0  0  0  0  0  0  0  0
   21.8479   17.6090   22.8264 H   0  0  0  0  0  0  0  0  0  0  0  0
   19.7018   17.9147   22.8730 C   0  0  0  0  0  0  0  0  0  0  0  0
   18.9227   17.9080   22.0987 H   0  0  0  0  0  0  0  0  0  0  0  0
   19.6763   16.9130   23.3233 H   0  0  0  0  0  0  0  0  0  0  0  0
   19.3438   18.9606   23.9545 C   0  0  0  0  0  0  0  0  0  0  0  0
   20.2284   19.2327   24.5464 H   0  0  0  0  0  0  0  0  0  0  0  0
   18.6382   18.4962   24.6566 H   0  0  0  0  0  0  0  0  0  0  0  0
   18.6624   20.2210   23.3644 C   0  0  0  0  0  0  0  0  0  0  0  0
   17.8371   19.9101   22.7109 H   0  0  0  0  0  0  0  0  0  0  0  0
   18.1907   20.7805   24.1826 H   0  0  0  0  0  0  0  0  0  0  0  0
   19.5785   21.1869   22.5786 C   0  0  0  0  0  0  0  0  0  0  0  0
   18.9212   21.9189   22.0873 H   0  0  0  0  0  0  0  0  0  0  0  0
   20.4326   20.5259   21.4678 C   0  0  0  0  0  0  0  0  0  0  0  0
   19.7809   20.0082   20.7524 H   0  0  0  0  0  0  0  0  0  0  0  0
   20.9136   21.3354   20.9037 H   0  0  0  0  0  0  0  0  0  0  0  0
   21.5409   19.5652   21.9717 C   0  0  0  0  0  0  0  0  0  0  0  0
   22.3554   19.5493   21.2351 H   0  0  0  0  0  0  0  0  0  0  0  0
   21.9899   19.9631   22.8914 H   0  0  0  0  0  0  0  0  0  0  0  0
   20.4190   21.8875   23.4906 O   0  0  0  0  0  0  0  0  0  0  0  0
   19.8339   22.2688   24.1765 H   0  0  0  0  0  0  0  0  0  0  0  0
  1  2  1  0  0  0  0
  1  3  1  0  0  0  0
  1  4  1  0  0  0  0
  4  5  1  0  0  0  0
  4  6  1  0  0  0  0
  4  7  1  0  0  0  0
  7  8  1  0  0  0  0
  7  9  1  0  0  0  0
  7 10  1  0  0  0  0
 10 11  1  0  0  0  0
 10 12  1  0  0  0  0
 10 13  1  0  0  0  0
 13 14  1  0  0  0  0
 13 15  1  0  0  0  0
 15 16  1  0  0  0  0
 15 17  1  0  0  0  0
  1 18  1  0  0  0  0
 15 18  1  0  0  0  0
 18 19  1  0  0  0  0
 18 20  1  0  0  0  0
 13 21  1  0  0  0  0
 21 22  1  0  0  0  0
M  END
> <VConfSearch Rank>
941

> <Conf_Id>
41

> <Delta U+W>
-2.114

> <U+W>
4.310

> <U>
6.598

> <W>
-2.289

> <W(PB)>
-4.294

> <W(SA)>
2.005

> <Valence>
12.082

> <Coulomb>
-7.801

> <VdW>
2.317

> <VdW6>
-9.658

> <VdW12>
11.975

> <Bond>
0.267

> <Angle>
3.051

> <Pdih>
8.764

> <Idih>
0.000

> <Tether>
0.000

$$$$
VeraChem MOL file


 22 22  0  0  0  0  0  0  0  0999 V2000     
   18.8673   18.8357   21.8213 C   0  0  0  0  0  0  0  0  0  0  0  0
   17.9706   18.3088   21.4679 H   0  0  0  0  0  0  0  0  0  0  0  0
   19.2008   19.4692   20.9879 H   0  0  0  0  0  0  0  0  0  0  0  0
   19.9368   17.7742   22.1629 C   0  0  0  0  0  0  0  0  0  0  0  0
   19.6119   17.1931   23.0366 H   0  0  0  0  0  0  0  0  0  0  0  0
   19.9990   17.0588   21.3317 H   0  0  0  0  0  0  0  0  0  0  0  0
   21.3499   18.3425   22.4186 C   0  0  0  0  0  0  0  0  0  0  0  0
   21.7600   18.7381   21.4798 H   0  0  0  0  0  0  0  0  0  0  0  0
   22.0056   17.5065   22.6965 H   0  0  0  0  0  0  0  0  0  0  0  0
   21.4357   19.4215   23.5320 C   0  0  0  0  0  0  0  0  0  0  0  0
   20.9565   19.0556   24.4489 H   0  0  0  0  0  0  0  0  0  0  0  0
   22.4955   19.5546   23.7844 H   0  0  0  0  0  0  0  0  0  0  0  0
   20.8743   20.8199   23.1669 C   0  0  0  0  0  0  0  0  0  0  0  0
   21.2864   21.5267   23.9017 H   0  0  0  0  0  0  0  0  0  0  0  0
   19.3326   20.9708   23.2414 C   0  0  0  0  0  0  0  0  0  0  0  0
   19.0802   21.3878   24.2250 H   0  0  0  0  0  0  0  0  0  0  0  0
   19.0120   21.7299   22.5158 H   0  0  0  0  0  0  0  0  0  0  0  0
   18.4723   19.6987   23.0400 C   0  0  0  0  0  0  0  0  0  0  0  0
   18.4930   19.0863   23.9516 H   0  0  0  0  0  0  0  0  0  0  0  0
   17.4271   20.0155   22.9221 H   0  0  0  0  0  0  0  0  0  0  0  0
   21.3338   21.2207   21.8788 O   0  0  0  0  0  0  0  0  0  0  0  0
   20.9829   22.1206   21.7208 H   0  0  0  0  0  0  0  0  0  0  0  0
  1  2  1  0  0  0  0
  1  3  1  0  0  0  0
  1  4  1  0  0  0  0
  4  5  1  0  0  0  0
  4  6  1  0  0  0  0
  4  7  1  0  0  0  0
  7  8  1  0  0  0  0
  7  9  1  0  0  0  0
  7 10  1  0  0  0  0
 10 11  1  0  0  0  0
 10 12  1  0  0  0  0
 10 13  1  0  0  0  0
 13 14  1  0  0  0  0
 13 15  1  0  0  0  0
 15 16  1  0  0  0  0
 15 17  1  0  0  0  0
  1 18  1  0  0  0  0
 15 18  1  0  0  0  0
 18 19  1  0  0  0  0
 18 20  1  0  0  0  0
 13 21  1  0  0  0  0
 21 22  1  0  0  0  0
M  END
> <VConfSearch Rank>
942

> <Conf_Id>
104

> <Delta U+W>
-1.172

> <U+W>
5.252

> <U>
7.482

> <W>
-2.230

> <W(PB)>
-4.220

> <W(SA)>
1.990

> <Valence>
12.309

> <Coulomb>
-7.084

> <VdW>
2.258

> <VdW6>
-9.770

> <VdW12>
12.028

> <Bond>
0.284

> <Angle>
3.491

> <Pdih>
8.535

> <Idih>
0.000

> <Tether>
0.000

$$$$
VeraChem MOL file


 22 22  0  0  0  0  0  0  0  0999 V2000     
   21.5876   19.7332   22.0668 C   0  0  0  0  0  0  0  0  0  0  0  0
   22.0593   19.4967   23.0301 H   0  0  0  0  0  0  0  0  0  0  0  0
   22.4115   19.9301   21.3672 H   0  0  0  0  0  0  0  0  0  0  0  0
   20.7369   21.0197   22.1695 C   0  0  0  0  0  0  0  0  0  0  0  0
   21.4076   21.8884   22.1162 H   0  0  0  0  0  0  0  0  0  0  0  0
   20.0943   21.1024   21.2832 H   0  0  0  0  0  0  0  0  0  0  0  0
   19.8844   21.1600   23.4561 C   0  0  0  0  0  0  0  0  0  0  0  0
   19.0300   21.8154   23.2374 H   0  0  0  0  0  0  0  0  0  0  0  0
   20.4776   21.6967   24.2091 H   0  0  0  0  0  0  0  0  0  0  0  0
   19.3676   19.8516   24.1135 C   0  0  0  0  0  0  0  0  0  0  0  0
   20.1824   19.3928   24.6885 H   0  0  0  0  0  0  0  0  0  0  0  0
   18.6079   20.1235   24.8578 H   0  0  0  0  0  0  0  0  0  0  0  0
   18.7600   18.7840   23.1748 C   0  0  0  0  0  0  0  0  0  0  0  0
   18.1093   18.1429   23.7868 H   0  0  0  0  0  0  0  0  0  0  0  0
   19.8279   17.8629   22.5427 C   0  0  0  0  0  0  0  0  0  0  0  0
   20.4170   17.4039   23.3473 H   0  0  0  0  0  0  0  0  0  0  0  0
   19.3114   17.0324   22.0440 H   0  0  0  0  0  0  0  0  0  0  0  0
   20.7937   18.5203   21.5259 C   0  0  0  0  0  0  0  0  0  0  0  0
   21.5118   17.7551   21.2012 H   0  0  0  0  0  0  0  0  0  0  0  0
   20.2417   18.8095   20.6214 H   0  0  0  0  0  0  0  0  0  0  0  0
   17.9806   19.3977   22.1600 O   0  0  0  0  0  0  0  0  0  0  0  0
   18.6031   20.0084   21.7175 H   0  0  0  0  0  0  0  0  0  0  0  0
  1  2  1  0  0  0  0
  1  3  1  0  0  0  0
  1  4  1  0  0  0  0
  4  5  1  0  0  0  0
  4  6  1  0  0  0  0
  4  7  1  0  0  0  0
  7  8  1  0  0  0  0
  7  9  1  0  0  0  0
  7 10  1  0  0  0  0
 10 11  1  0  0  0  0
 10 12  1  0  0  0  0
 10 13  1  0  0  0  0
 13 14  1  0  0  0  0
 13 15  1  0  0  0  0
 15 16  1  0  0  0  0
 15 17  1  0  0  0  0
  1 18  1  0  0  0  0
 15 18  1  0  0  0  0
 18 19  1  0  0  0  0
 18 20  1  0  0  0  0
 13 21  1  0  0  0  0
 21 22  1  0  0  0  0
M  END
> <VConfSearch Rank>
943

> <Conf_Id>
99

> <Delta U+W>
-3.852

> <U+W>
2.572

> <U>
3.922

> <W>
-1.350

> <W(PB)>
-3.345

> <W(SA)>
1.995

> <Valence>
12.571

> <Coulomb>
-10.581

> <VdW>
1.932

> <VdW6>
-10.483

> <VdW12>
12.415

> <Bond>
0.268

> <Angle>
3.728

> <Pdih>
8.575

> <Idih>
0.000

> <Tether>
0.000

$$$$
VeraChem MOL file


 22 22  0  0  0  0  0  0  0  0999 V2000     
   19.4019   21.1112   22.5337 C   0  0  0  0  0  0  0  0  0  0  0  0
   18.5646   21.8140   22.6446 H   0  0  0  0  0  0  0  0  0  0  0  0
   20.2286   21.7160   22.1375 H   0  0  0  0  0  0  0  0  0  0  0  0
   18.9830   20.0295   21.4953 C   0  0  0  0  0  0  0  0  0  0  0  0
   17.9644   20.2643   21.1565 H   0  0  0  0  0  0  0  0  0  0  0  0
   19.6061   20.1084   20.5944 H   0  0  0  0  0  0  0  0  0  0  0  0
   18.9863   18.5646   22.0019 C   0  0  0  0  0  0  0  0  0  0  0  0
   18.4927   17.9362   21.2480 H   0  0  0  0  0  0  0  0  0  0  0  0
   18.3500   18.4790   22.8915 H   0  0  0  0  0  0  0  0  0  0  0  0
   20.3824   17.9480   22.2942 C   0  0  0  0  0  0  0  0  0  0  0  0
   20.2481   17.1092   22.9893 H   0  0  0  0  0  0  0  0  0  0  0  0
   20.7640   17.4987   21.3677 H   0  0  0  0  0  0  0  0  0  0  0  0
   21.4896   18.8752   22.8533 C   0  0  0  0  0  0  0  0  0  0  0  0
   22.3049   18.2250   23.2016 H   0  0  0  0  0  0  0  0  0  0  0  0
   21.0905   19.7756   24.0484 C   0  0  0  0  0  0  0  0  0  0  0  0
   21.0401   19.1528   24.9508 H   0  0  0  0  0  0  0  0  0  0  0  0
   21.9174   20.4762   24.2253 H   0  0  0  0  0  0  0  0  0  0  0  0
   19.7708   20.5897   23.9460 C   0  0  0  0  0  0  0  0  0  0  0  0
   18.9395   20.0001   24.3519 H   0  0  0  0  0  0  0  0  0  0  0  0
   19.8543   21.4512   24.6225 H   0  0  0  0  0  0  0  0  0  0  0  0
   22.0121   19.6777   21.8063 O   0  0  0  0  0  0  0  0  0  0  0  0
   21.2545   20.2332   21.5336 H   0  0  0  0  0  0  0  0  0  0  0  0
  1  2  1  0  0  0  0
  1  3  1  0  0  0  0
  1  4  1  0  0  0  0
  4  5  1  0  0  0  0
  4  6  1  0  0  0  0
  4  7  1  0  0  0  0
  7  8  1  0  0  0  0
  7  9  1  0  0  0  0
  7 10  1  0  0  0  0
 10 11  1  0  0  0  0
 10 12  1  0  0  0  0
 10 13  1  0  0  0  0
 13 14  1  0  0  0  0
 13 15  1  0  0  0  0
 15 16  1  0  0  0  0
 15 17  1  0  0  0  0
  1 18  1  0  0  0  0
 15 18  1  0  0  0  0
 18 19  1  0  0  0  0
 18 20  1  0  0  0  0
 13 21  1  0  0  0  0
 21 22  1  0  0  0  0
M  END
> <VConfSearch Rank>
944

> <Conf_Id>
98

> <Delta U+W>
0.930

> <U+W>
7.353

> <U>
8.455

> <W>
-1.102

> <W(PB)>
-3.101

> <W(SA)>
2.000

> <Valence>
15.601

> <Coulomb>
-10.573

> <VdW>
3.427

> <VdW6>
-11.360

> <VdW12>
14.787

> <Bond>
0.471

> <Angle>
5.445

> <Pdih>
9.685

> <Idih>
0.000

> <Tether>
0.000

$$$$
VeraChem MOL file


 22 22  0  0  0  0  0  0  0  0999 V2000     
   19.3397   20.8927   23.4620 C   0  0  0  0  0  0  0  0  0  0  0  0
   20.2871   20.9726   24.0105 H   0  0  0  0  0  0  0  0  0  0  0  0
   18.7397   21.7471   23.8032 H   0  0  0  0  0  0  0  0  0  0  0  0
   18.6103   19.5856   23.8641 C   0  0  0  0  0  0  0  0  0  0  0  0
   18.4375   19.6235   24.9483 H   0  0  0  0  0  0  0  0  0  0  0  0
   17.6128   19.5650   23.4045 H   0  0  0  0  0  0  0  0  0  0  0  0
   19.3500   18.2584   23.5385 C   0  0  0  0  0  0  0  0  0  0  0  0
   18.9028   17.7854   22.6546 H   0  0  0  0  0  0  0  0  0  0  0  0
   19.1657   17.5531   24.3602 H   0  0  0  0  0  0  0  0  0  0  0  0
   20.8821   18.3933   23.3336 C   0  0  0  0  0  0  0  0  0  0  0  0
   21.3146   18.9237   24.1911 H   0  0  0  0  0  0  0  0  0  0  0  0
   21.3249   17.3889   23.3712 H   0  0  0  0  0  0  0  0  0  0  0  0
   21.3333   19.0941   22.0185 C   0  0  0  0  0  0  0  0  0  0  0  0
   22.1160   19.8228   22.2743 H   0  0  0  0  0  0  0  0  0  0  0  0
   20.2234   19.8339   21.2304 C   0  0  0  0  0  0  0  0  0  0  0  0
   20.6360   20.1771   20.2728 H   0  0  0  0  0  0  0  0  0  0  0  0
   19.4284   19.1279   20.9617 H   0  0  0  0  0  0  0  0  0  0  0  0
   19.6045   21.0598   21.9472 C   0  0  0  0  0  0  0  0  0  0  0  0
   20.2683   21.9243   21.8098 H   0  0  0  0  0  0  0  0  0  0  0  0
   18.6636   21.3194   21.4434 H   0  0  0  0  0  0  0  0  0  0  0  0
   21.8887   18.1114   21.1519 O   0  0  0  0  0  0  0  0  0  0  0  0
   22.2157   18.5858   20.3594 H   0  0  0  0  0  0  0  0  0  0  0  0
  1  2  1  0  0  0  0
  1  3  1  0  0  0  0
  1  4  1  0  0  0  0
  4  5  1  0  0  0  0
  4  6  1  0  0  0  0
  4  7  1  0  0  0  0
  7  8  1  0  0  0  0
  7  9  1  0  0  0  0
  7 10  1  0  0  0  0
 10 11  1  0  0  0  0
 10 12  1  0  0  0  0
 10 13  1  0  0  0  0
 13 14  1  0  0  0  0
 13 15  1  0  0  0  0
 15 16  1  0  0  0  0
 15 17  1  0  0  0  0
  1 18  1  0  0  0  0
 15 18  1  0  0  0  0
 18 19  1  0  0  0  0
 18 20  1  0  0  0  0
 13 21  1  0  0  0  0
 21 22  1  0  0  0  0
M  END
> <VConfSearch Rank>
945

> <Conf_Id>
141

> <Delta U+W>
0.000

> <U+W>
6.423

> <U>
8.781

> <W>
-2.358

> <W(PB)>
-4.373

> <W(SA)>
2.015

> <Valence>
13.328

> <Coulomb>
-8.387

> <VdW>
3.840

> <VdW6>
-9.744

> <VdW12>
13.584

> <Bond>
0.436

> <Angle>
3.478

> <Pdih>
9.415

> <Idih>
0.000

> <Tether>
0.000

$$$$
VeraChem MOL file


 22 22  0  0  0  0  0  0  0  0999 V2000     
   19.4591   20.0240   21.0426 C   0  0  0  0  0  0  0  0  0  0  0  0
   19.2630   21.0464   21.3932 H   0  0  0  0  0  0  0  0  0  0  0  0
   19.2436   20.0259   19.9653 H   0  0  0  0  0  0  0  0  0  0  0  0
   18.4958   19.0147   21.7125 C   0  0  0  0  0  0  0  0  0  0  0  0
   17.4801   19.1977   21.3361 H   0  0  0  0  0  0  0  0  0  0  0  0
   18.7542   17.9964   21.3911 H   0  0  0  0  0  0  0  0  0  0  0  0
   18.4545   19.0683   23.2571 C   0  0  0  0  0  0  0  0  0  0  0  0
   17.7923   18.2659   23.6100 H   0  0  0  0  0  0  0  0  0  0  0  0
   17.9835   20.0078   23.5771 H   0  0  0  0  0  0  0  0  0  0  0  0
   19.8289   18.9170   23.9538 C   0  0  0  0  0  0  0  0  0  0  0  0
   19.6422   18.7394   25.0211 H   0  0  0  0  0  0  0  0  0  0  0  0
   20.3549   18.0274   23.5836 H   0  0  0  0  0  0  0  0  0  0  0  0
   20.7162   20.1728   23.8018 C   0  0  0  0  0  0  0  0  0  0  0  0
   20.0615   21.0558   23.7768 H   0  0  0  0  0  0  0  0  0  0  0  0
   21.5973   20.1864   22.5319 C   0  0  0  0  0  0  0  0  0  0  0  0
   21.9205   21.2219   22.3640 H   0  0  0  0  0  0  0  0  0  0  0  0
   22.5143   19.6119   22.7196 H   0  0  0  0  0  0  0  0  0  0  0  0
   20.9482   19.6509   21.2311 C   0  0  0  0  0  0  0  0  0  0  0  0
   21.5238   20.0392   20.3798 H   0  0  0  0  0  0  0  0  0  0  0  0
   21.0594   18.5589   21.1876 H   0  0  0  0  0  0  0  0  0  0  0  0
   21.5725   20.2687   24.9335 O   0  0  0  0  0  0  0  0  0  0  0  0
   20.9931   20.3353   25.7211 H   0  0  0  0  0  0  0  0  0  0  0  0
  1  2  1  0  0  0  0
  1  3  1  0  0  0  0
  1  4  1  0  0  0  0
  4  5  1  0  0  0  0
  4  6  1  0  0  0  0
  4  7  1  0  0  0  0
  7  8  1  0  0  0  0
  7  9  1  0  0  0  0
  7 10  1  0  0  0  0
 10 11  1  0  0  0  0
 10 12  1  0  0  0  0
 10 13  1  0  0  0  0
 13 14  1  0  0  0  0
 13 15  1  0  0  0  0
 15 16  1  0  0  0  0
 15 17  1  0  0  0  0
  1 18  1  0  0  0  0
 15 18  1  0  0  0  0
 18 19  1  0  0  0  0
 18 20  1  0  0  0  0
 13 21  1  0  0  0  0
 21 22  1  0  0  0  0
M  END
> <VConfSearch Rank>
946

> <Conf_Id>
144

> <Delta U+W>
-3.291

> <U+W>
3.132

> <U>
5.411

> <W>
-2.279

> <W(PB)>
-4.300

> <W(SA)>
2.021

> <Valence>
11.909

> <Coulomb>
-8.733

> <VdW>
2.236

> <VdW6>
-8.936

> <VdW12>
11.172

> <Bond>
0.223

> <Angle>
2.457

> <Pdih>
9.228

> <Idih>
0.000

> <Tether>
0.000

$$$$
VeraChem MOL file


 22 22  0  0  0  0  0  0  0  0999 V2000     
   21.5494   20.1307   22.3729 C   0  0  0  0  0  0  0  0  0  0  0  0
   22.4243   20.7340   22.0945 H   0  0  0  0  0  0  0  0  0  0  0  0
   21.9457   19.1950   22.7901 H   0  0  0  0  0  0  0  0  0  0  0  0
   20.7286   19.8583   21.0906 C   0  0  0  0  0  0  0  0  0  0  0  0
   20.0854   20.7230   20.8776 H   0  0  0  0  0  0  0  0  0  0  0  0
   21.4163   19.7876   20.2368 H   0  0  0  0  0  0  0  0  0  0  0  0
   19.8724   18.5691   21.1209 C   0  0  0  0  0  0  0  0  0  0  0  0
   20.5041   17.7140   20.8442 H   0  0  0  0  0  0  0  0  0  0  0  0
   19.1113   18.6451   20.3322 H   0  0  0  0  0  0  0  0  0  0  0  0
   19.1753   18.2391   22.4638 C   0  0  0  0  0  0  0  0  0  0  0  0
   18.3674   17.5245   22.2561 H   0  0  0  0  0  0  0  0  0  0  0  0
   19.8815   17.7087   23.1156 H   0  0  0  0  0  0  0  0  0  0  0  0
   18.6024   19.4601   23.2178 C   0  0  0  0  0  0  0  0  0  0  0  0
   18.2369   20.2019   22.4934 H   0  0  0  0  0  0  0  0  0  0  0  0
   19.6405   20.1183   24.1549 C   0  0  0  0  0  0  0  0  0  0  0  0
   19.1157   20.8008   24.8368 H   0  0  0  0  0  0  0  0  0  0  0  0
   20.1003   19.3497   24.7896 H   0  0  0  0  0  0  0  0  0  0  0  0
   20.7548   20.9198   23.4411 C   0  0  0  0  0  0  0  0  0  0  0  0
   20.3200   21.8184   22.9824 H   0  0  0  0  0  0  0  0  0  0  0  0
   21.4578   21.2832   24.2030 H   0  0  0  0  0  0  0  0  0  0  0  0
   17.5112   19.0209   24.0155 O   0  0  0  0  0  0  0  0  0  0  0  0
   17.8747   18.3634   24.6437 H   0  0  0  0  0  0  0  0  0  0  0  0
  1  2  1  0  0  0  0
  1  3  1  0  0  0  0
  1  4  1  0  0  0  0
  4  5  1  0  0  0  0
  4  6  1  0  0  0  0
  4  7  1  0  0  0  0
  7  8  1  0  0  0  0
  7  9  1  0  0  0  0
  7 10  1  0  0  0  0
 10 11  1  0  0  0  0
 10 12  1  0  0  0  0
 10 13  1  0  0  0  0
 13 14  1  0  0  0  0
 13 15  1  0  0  0  0
 15 16  1  0  0  0  0
 15 17  1  0  0  0  0
  1 18  1  0  0  0  0
 15 18  1  0  0  0  0
 18 19  1  0  0  0  0
 18 20  1  0  0  0  0
 13 21  1  0  0  0  0
 21 22  1  0  0  0  0
M  END
> <VConfSearch Rank>
947

> <Conf_Id>
76

> <Delta U+W>
-3.175

> <U+W>
3.248

> <U>
5.336

> <W>
-2.088

> <W(PB)>
-4.098

> <W(SA)>
2.010

> <Valence>
12.390

> <Coulomb>
-9.270

> <VdW>
2.216

> <VdW6>
-8.967

> <VdW12>
11.183

> <Bond>
0.218

> <Angle>
2.426

> <Pdih>
9.745

> <Idih>
0.000

> <Tether>
0.000

$$$$
VeraChem MOL file


 22 22  0  0  0  0  0  0  0  0999 V2000     
   19.3500   19.7035   24.4138 C   0  0  0  0  0  0  0  0  0  0  0  0
   18.5849   19.0615   24.8713 H   0  0  0  0  0  0  0  0  0  0  0  0
   19.6674   20.3981   25.2035 H   0  0  0  0  0  0  0  0  0  0  0  0
   18.6853   20.5108   23.2732 C   0  0  0  0  0  0  0  0  0  0  0  0
   17.9374   19.8845   22.7683 H   0  0  0  0  0  0  0  0  0  0  0  0
   18.1193   21.3360   23.7267 H   0  0  0  0  0  0  0  0  0  0  0  0
   19.6639   21.0896   22.2249 C   0  0  0  0  0  0  0  0  0  0  0  0
   20.5950   21.4276   22.7000 H   0  0  0  0  0  0  0  0  0  0  0  0
   19.2033   21.9849   21.7862 H   0  0  0  0  0  0  0  0  0  0  0  0
   19.9621   20.0988   21.0711 C   0  0  0  0  0  0  0  0  0  0  0  0
   19.0145   19.7235   20.6638 H   0  0  0  0  0  0  0  0  0  0  0  0
   20.4379   20.6505   20.2498 H   0  0  0  0  0  0  0  0  0  0  0  0
   20.8650   18.8941   21.4214 C   0  0  0  0  0  0  0  0  0  0  0  0
   20.8258   18.2083   20.5628 H   0  0  0  0  0  0  0  0  0  0  0  0
   20.4310   18.0862   22.6702 C   0  0  0  0  0  0  0  0  0  0  0  0
   19.4007   17.7294   22.5429 H   0  0  0  0  0  0  0  0  0  0  0  0
   21.0536   17.1833   22.7132 H   0  0  0  0  0  0  0  0  0  0  0  0
   20.5694   18.8358   24.0209 C   0  0  0  0  0  0  0  0  0  0  0  0
   20.7300   18.0988   24.8193 H   0  0  0  0  0  0  0  0  0  0  0  0
   21.4731   19.4592   24.0149 H   0  0  0  0  0  0  0  0  0  0  0  0
   22.2086   19.3417   21.5705 O   0  0  0  0  0  0  0  0  0  0  0  0
   22.7341   18.5615   21.8415 H   0  0  0  0  0  0  0  0  0  0  0  0
  1  2  1  0  0  0  0
  1  3  1  0  0  0  0
  1  4  1  0  0  0  0
  4  5  1  0  0  0  0
  4  6  1  0  0  0  0
  4  7  1  0  0  0  0
  7  8  1  0  0  0  0
  7  9  1  0  0  0  0
  7 10  1  0  0  0  0
 10 11  1  0  0  0  0
 10 12  1  0  0  0  0
 10 13  1  0  0  0  0
 13 14  1  0  0  0  0
 13 15  1  0  0  0  0
 15 16  1  0  0  0  0
 15 17  1  0  0  0  0
  1 18  1  0  0  0  0
 15 18  1  0  0  0  0
 18 19  1  0  0  0  0
 18 20  1  0  0  0  0
 13 21  1  0  0  0  0
 21 22  1  0  0  0  0
M  END
> <VConfSearch Rank>
948

> <Conf_Id>
95

> <Delta U+W>
-2.289

> <U+W>
4.134

> <U>
6.373

> <W>
-2.240

> <W(PB)>
-4.254

> <W(SA)>
2.015

> <Valence>
12.093

> <Coulomb>
-8.058

> <VdW>
2.339

> <VdW6>
-9.683

> <VdW12>
12.022

> <Bond>
0.268

> <Angle>
3.005

> <Pdih>
8.820

> <Idih>
0.000

> <Tether>
0.000

$$$$
VeraChem MOL file


 22 22  0  0  0  0  0  0  0  0999 V2000     
   19.3398   18.3643   21.4588 C   0  0  0  0  0  0  0  0  0  0  0  0
   18.9931   17.3408   21.6567 H   0  0  0  0  0  0  0  0  0  0  0  0
   19.1624   18.5373   20.3886 H   0  0  0  0  0  0  0  0  0  0  0  0
   20.8622   18.4204   21.7297 C   0  0  0  0  0  0  0  0  0  0  0  0
   21.1064   17.7721   22.5820 H   0  0  0  0  0  0  0  0  0  0  0  0
   21.3770   17.9766   20.8666 H   0  0  0  0  0  0  0  0  0  0  0  0
   21.4316   19.8363   21.9802 C   0  0  0  0  0  0  0  0  0  0  0  0
   20.9379   20.5780   21.3375 H   0  0  0  0  0  0  0  0  0  0  0  0
   22.4899   19.8344   21.6863 H   0  0  0  0  0  0  0  0  0  0  0  0
   21.3559   20.2558   23.4700 C   0  0  0  0  0  0  0  0  0  0  0  0
   21.7797   19.4554   24.0902 H   0  0  0  0  0  0  0  0  0  0  0  0
   22.0121   21.1221   23.6245 H   0  0  0  0  0  0  0  0  0  0  0  0
   19.9503   20.6073   24.0090 C   0  0  0  0  0  0  0  0  0  0  0  0
   20.0445   20.7079   25.0999 H   0  0  0  0  0  0  0  0  0  0  0  0
   18.8584   19.5405   23.7440 C   0  0  0  0  0  0  0  0  0  0  0  0
   19.1631   18.5778   24.1739 H   0  0  0  0  0  0  0  0  0  0  0  0
   17.9634   19.8475   24.3003 H   0  0  0  0  0  0  0  0  0  0  0  0
   18.4617   19.3584   22.2557 C   0  0  0  0  0  0  0  0  0  0  0  0
   17.4233   19.0040   22.2085 H   0  0  0  0  0  0  0  0  0  0  0  0
   18.4588   20.3322   21.7484 H   0  0  0  0  0  0  0  0  0  0  0  0
   19.5432   21.8660   23.4810 O   0  0  0  0  0  0  0  0  0  0  0  0
   20.2717   22.4949   23.6595 H   0  0  0  0  0  0  0  0  0  0  0  0
  1  2  1  0  0  0  0
  1  3  1  0  0  0  0
  1  4  1  0  0  0  0
  4  5  1  0  0  0  0
  4  6  1  0  0  0  0
  4  7  1  0  0  0  0
  7  8  1  0  0  0  0
  7  9  1  0  0  0  0
  7 10  1  0  0  0  0
 10 11  1  0  0  0  0
 10 12  1  0  0  0  0
 10 13  1  0  0  0  0
 13 14  1  0  0  0  0
 13 15  1  0  0  0  0
 15 16  1  0  0  0  0
 15 17  1  0  0  0  0
  1 18  1  0  0  0  0
 15 18  1  0  0  0  0
 18 19  1  0  0  0  0
 18 20  1  0  0  0  0
 13 21  1  0  0  0  0
 21 22  1  0  0  0  0
M  END
> <VConfSearch Rank>
949

> <Conf_Id>
41

> <Delta U+W>
-2.114

> <U+W>
4.310

> <U>
6.598

> <W>
-2.289

> <W(PB)>
-4.294

> <W(SA)>
2.005

> <Valence>
12.082

> <Coulomb>
-7.801

> <VdW>
2.317

> <VdW6>
-9.658

> <VdW12>
11.975

> <Bond>
0.267

> <Angle>
3.051

> <Pdih>
8.764

> <Idih>
0.000

> <Tether>
0.000

$$$$
VeraChem MOL file


 22 22  0  0  0  0  0  0  0  0999 V2000     
   21.4717   19.6026   23.6377 C   0  0  0  0  0  0  0  0  0  0  0  0
   22.3716   19.3845   24.2286 H   0  0  0  0  0  0  0  0  0  0  0  0
   21.5622   20.6484   23.3132 H   0  0  0  0  0  0  0  0  0  0  0  0
   20.2445   19.4205   24.5587 C   0  0  0  0  0  0  0  0  0  0  0  0
   20.1360   18.3594   24.8210 H   0  0  0  0  0  0  0  0  0  0  0  0
   20.4344   19.9465   25.5042 H   0  0  0  0  0  0  0  0  0  0  0  0
   18.9155   19.9449   23.9723 C   0  0  0  0  0  0  0  0  0  0  0  0
   18.9512   21.0406   23.9086 H   0  0  0  0  0  0  0  0  0  0  0  0
   18.1160   19.7182   24.6904 H   0  0  0  0  0  0  0  0  0  0  0  0
   18.5197   19.3455   22.5956 C   0  0  0  0  0  0  0  0  0  0  0  0
   18.5589   18.2496   22.6366 H   0  0  0  0  0  0  0  0  0  0  0  0
   17.4671   19.5978   22.4139 H   0  0  0  0  0  0  0  0  0  0  0  0
   19.3286   19.8557   21.3752 C   0  0  0  0  0  0  0  0  0  0  0  0
   18.7420   19.6028   20.4801 H   0  0  0  0  0  0  0  0  0  0  0  0
   20.7248   19.2120   21.1717 C   0  0  0  0  0  0  0  0  0  0  0  0
   20.6163   18.3873   20.4553 H   0  0  0  0  0  0  0  0  0  0  0  0
   21.3847   19.9375   20.6780 H   0  0  0  0  0  0  0  0  0  0  0  0
   21.4504   18.6521   22.4203 C   0  0  0  0  0  0  0  0  0  0  0  0
   21.0079   17.6890   22.7083 H   0  0  0  0  0  0  0  0  0  0  0  0
   22.4863   18.4259   22.1332 H   0  0  0  0  0  0  0  0  0  0  0  0
   19.4564   21.2744   21.4199 O   0  0  0  0  0  0  0  0  0  0  0  0
   19.9374   21.5406   20.6101 H   0  0  0  0  0  0  0  0  0  0  0  0
  1  2  1  0  0  0  0
  1  3  1  0  0  0  0
  1  4  1  0  0  0  0
  4  5  1  0  0  0  0
  4  6  1  0  0  0  0
  4  7  1  0  0  0  0
  7  8  1  0  0  0  0
  7  9  1  0  0  0  0
  7 10  1  0  0  0  0
 10 11  1  0  0  0  0
 10 12  1  0  0  0  0
 10 13  1  0  0  0  0
 13 14  1  0  0  0  0
 13 15  1  0  0  0  0
 15 16  1  0  0  0  0
 15 17  1  0  0  0  0
  1 18  1  0  0  0  0
 15 18  1  0  0  0  0
 18 19  1  0  0  0  0
 18 20  1  0  0  0  0
 13 21  1  0  0  0  0
 21 22  1  0  0  0  0
M  END
> <VConfSearch Rank>
950

> <Conf_Id>
104

> <Delta U+W>
-1.172

> <U+W>
5.252

> <U>
7.482

> <W>
-2.230

> <W(PB)>
-4.220

> <W(SA)>
1.990

> <Valence>
12.309

> <Coulomb>
-7.084

> <VdW>
2.258

> <VdW6>
-9.770

> <VdW12>
12.028

> <Bond>
0.284

> <Angle>
3.491

> <Pdih>
8.535

> <Idih>
0.000

> <Tether>
0.000

$$$$
VeraChem MOL file


 22 22  0  0  0  0  0  0  0  0999 V2000     
   19.7183   20.4851   24.0035 C   0  0  0  0  0  0  0  0  0  0  0  0
   20.5339   20.0419   24.5908 H   0  0  0  0  0  0  0  0  0  0  0  0
   19.2104   21.1900   24.6758 H   0  0  0  0  0  0  0  0  0  0  0  0
   18.6915   19.4083   23.5843 C   0  0  0  0  0  0  0  0  0  0  0  0
   18.0346   19.1987   24.4398 H   0  0  0  0  0  0  0  0  0  0  0  0
   18.0286   19.8193   22.8116 H   0  0  0  0  0  0  0  0  0  0  0  0
   19.2889   18.0605   23.1067 C   0  0  0  0  0  0  0  0  0  0  0  0
   18.5630   17.5752   22.4398 H   0  0  0  0  0  0  0  0  0  0  0  0
   19.3781   17.3931   23.9747 H   0  0  0  0  0  0  0  0  0  0  0  0
   20.6741   18.1045   22.4063 C   0  0  0  0  0  0  0  0  0  0  0  0
   21.4587   18.1965   23.1684 H   0  0  0  0  0  0  0  0  0  0  0  0
   20.8456   17.1289   21.9332 H   0  0  0  0  0  0  0  0  0  0  0  0
   20.8887   19.2010   21.3379 C   0  0  0  0  0  0  0  0  0  0  0  0
   21.7085   18.8665   20.6861 H   0  0  0  0  0  0  0  0  0  0  0  0
   21.3244   20.5537   21.9451 C   0  0  0  0  0  0  0  0  0  0  0  0
   22.2290   20.3941   22.5462 H   0  0  0  0  0  0  0  0  0  0  0  0
   21.6285   21.2154   21.1236 H   0  0  0  0  0  0  0  0  0  0  0  0
   20.2731   21.2951   22.8077 C   0  0  0  0  0  0  0  0  0  0  0  0
   20.7421   22.2086   23.1979 H   0  0  0  0  0  0  0  0  0  0  0  0
   19.4446   21.6370   22.1728 H   0  0  0  0  0  0  0  0  0  0  0  0
   19.7170   19.3708   20.5552 O   0  0  0  0  0  0  0  0  0  0  0  0
   19.0219   19.5835   21.2094 H   0  0  0  0  0  0  0  0  0  0  0  0
  1  2  1  0  0  0  0
  1  3  1  0  0  0  0
  1  4  1  0  0  0  0
  4  5  1  0  0  0  0
  4  6  1  0  0  0  0
  4  7  1  0  0  0  0
  7  8  1  0  0  0  0
  7  9  1  0  0  0  0
  7 10  1  0  0  0  0
 10 11  1  0  0  0  0
 10 12  1  0  0  0  0
 10 13  1  0  0  0  0
 13 14  1  0  0  0  0
 13 15  1  0  0  0  0
 15 16  1  0  0  0  0
 15 17  1  0  0  0  0
  1 18  1  0  0  0  0
 15 18  1  0  0  0  0
 18 19  1  0  0  0  0
 18 20  1  0  0  0  0
 13 21  1  0  0  0  0
 21 22  1  0  0  0  0
M  END
> <VConfSearch Rank>
951

> <Conf_Id>
99

> <Delta U+W>
-3.852

> <U+W>
2.572

> <U>
3.922

> <W>
-1.350

> <W(PB)>
-3.345

> <W(SA)>
1.995

> <Valence>
12.571

> <Coulomb>
-10.581

> <VdW>
1.932

> <VdW6>
-10.483

> <VdW12>
12.415

> <Bond>
0.268

> <Angle>
3.728

> <Pdih>
8.575

> <Idih>
0.000

> <Tether>
0.000

$$$$
VeraChem MOL file


 22 22  0  0  0  0  0  0  0  0999 V2000     
   21.7052   19.3727   22.9472 C   0  0  0  0  0  0  0  0  0  0  0  0
   22.7272   19.7572   23.0698 H   0  0  0  0  0  0  0  0  0  0  0  0
   21.7928   18.2868   23.0859 H   0  0  0  0  0  0  0  0  0  0  0  0
   21.2458   19.6926   21.4945 C   0  0  0  0  0  0  0  0  0  0  0  0
   22.0690   20.2154   20.9882 H   0  0  0  0  0  0  0  0  0  0  0  0
   21.1099   18.7622   20.9271 H   0  0  0  0  0  0  0  0  0  0  0  0
   19.9759   20.5715   21.3620 C   0  0  0  0  0  0  0  0  0  0  0  0
   19.8761   20.8800   20.3124 H   0  0  0  0  0  0  0  0  0  0  0  0
   20.1157   21.5097   21.9130 H   0  0  0  0  0  0  0  0  0  0  0  0
   18.6388   19.9057   21.7907 C   0  0  0  0  0  0  0  0  0  0  0  0
   17.9200   20.7008   22.0267 H   0  0  0  0  0  0  0  0  0  0  0  0
   18.2177   19.3825   20.9218 H   0  0  0  0  0  0  0  0  0  0  0  0
   18.6656   18.9032   22.9708 C   0  0  0  0  0  0  0  0  0  0  0  0
   17.6206   18.7247   23.2619 H   0  0  0  0  0  0  0  0  0  0  0  0
   19.4150   19.3648   24.2450 C   0  0  0  0  0  0  0  0  0  0  0  0
   18.7878   20.0959   24.7712 H   0  0  0  0  0  0  0  0  0  0  0  0
   19.4824   18.5013   24.9201 H   0  0  0  0  0  0  0  0  0  0  0  0
   20.8359   19.9723   24.0819 C   0  0  0  0  0  0  0  0  0  0  0  0
   20.7616   21.0597   23.9562 H   0  0  0  0  0  0  0  0  0  0  0  0
   21.3690   19.8403   25.0333 H   0  0  0  0  0  0  0  0  0  0  0  0
   19.1953   17.6629   22.5300 O   0  0  0  0  0  0  0  0  0  0  0  0
   20.1184   17.8739   22.2846 H   0  0  0  0  0  0  0  0  0  0  0  0
  1  2  1  0  0  0  0
  1  3  1  0  0  0  0
  1  4  1  0  0  0  0
  4  5  1  0  0  0  0
  4  6  1  0  0  0  0
  4  7  1  0  0  0  0
  7  8  1  0  0  0  0
  7  9  1  0  0  0  0
  7 10  1  0  0  0  0
 10 11  1  0  0  0  0
 10 12  1  0  0  0  0
 10 13  1  0  0  0  0
 13 14  1  0  0  0  0
 13 15  1  0  0  0  0
 15 16  1  0  0  0  0
 15 17  1  0  0  0  0
  1 18  1  0  0  0  0
 15 18  1  0  0  0  0
 18 19  1  0  0  0  0
 18 20  1  0  0  0  0
 13 21  1  0  0  0  0
 21 22  1  0  0  0  0
M  END
> <VConfSearch Rank>
952

> <Conf_Id>
98

> <Delta U+W>
0.930

> <U+W>
7.353

> <U>
8.455

> <W>
-1.102

> <W(PB)>
-3.101

> <W(SA)>
2.000

> <Valence>
15.601

> <Coulomb>
-10.573

> <VdW>
3.427

> <VdW6>
-11.360

> <VdW12>
14.787

> <Bond>
0.471

> <Angle>
5.445

> <Pdih>
9.685

> <Idih>
0.000

> <Tether>
0.000

$$$$
VeraChem MOL file


 22 22  0  0  0  0  0  0  0  0999 V2000     
   19.8576   20.6560   23.9474 C   0  0  0  0  0  0  0  0  0  0  0  0
   19.1111   21.1773   23.3346 H   0  0  0  0  0  0  0  0  0  0  0  0
   19.8802   21.2057   24.8982 H   0  0  0  0  0  0  0  0  0  0  0  0
   21.2524   20.7664   23.2806 C   0  0  0  0  0  0  0  0  0  0  0  0
   21.4917   21.8347   23.1895 H   0  0  0  0  0  0  0  0  0  0  0  0
   22.0147   20.3469   23.9511 H   0  0  0  0  0  0  0  0  0  0  0  0
   21.3951   20.1175   21.8759 C   0  0  0  0  0  0  0  0  0  0  0  0
   21.9309   19.1627   21.9550 H   0  0  0  0  0  0  0  0  0  0  0  0
   22.0477   20.7582   21.2674 H   0  0  0  0  0  0  0  0  0  0  0  0
   20.0611   19.9004   21.1137 C   0  0  0  0  0  0  0  0  0  0  0  0
   19.5007   20.8433   21.0933 H   0  0  0  0  0  0  0  0  0  0  0  0
   20.2953   19.6891   20.0617 H   0  0  0  0  0  0  0  0  0  0  0  0
   19.1408   18.7705   21.6618 C   0  0  0  0  0  0  0  0  0  0  0  0
   18.1150   19.1634   21.7117 H   0  0  0  0  0  0  0  0  0  0  0  0
   19.5127   18.2121   23.0583 C   0  0  0  0  0  0  0  0  0  0  0  0
   18.8724   17.3478   23.2776 H   0  0  0  0  0  0  0  0  0  0  0  0
   20.5336   17.8124   23.0361 H   0  0  0  0  0  0  0  0  0  0  0  0
   19.3760   19.2139   24.2321 C   0  0  0  0  0  0  0  0  0  0  0  0
   18.3222   19.2600   24.5391 H   0  0  0  0  0  0  0  0  0  0  0  0
   19.9244   18.8147   25.0962 H   0  0  0  0  0  0  0  0  0  0  0  0
   19.1696   17.6818   20.7459 O   0  0  0  0  0  0  0  0  0  0  0  0
   18.5402   17.0111   21.0841 H   0  0  0  0  0  0  0  0  0  0  0  0
  1  2  1  0  0  0  0
  1  3  1  0  0  0  0
  1  4  1  0  0  0  0
  4  5  1  0  0  0  0
  4  6  1  0  0  0  0
  4  7  1  0  0  0  0
  7  8  1  0  0  0  0
  7  9  1  0  0  0  0
  7 10  1  0  0  0  0
 10 11  1  0  0  0  0
 10 12  1  0  0  0  0
 10 13  1  0  0  0  0
 13 14  1  0  0  0  0
 13 15  1  0  0  0  0
 15 16  1  0  0  0  0
 15 17  1  0  0  0  0
  1 18  1  0  0  0  0
 15 18  1  0  0  0  0
 18 19  1  0  0  0  0
 18 20  1  0  0  0  0
 13 21  1  0  0  0  0
 21 22  1  0  0  0  0
M  END
> <VConfSearch Rank>
953

> <Conf_Id>
141

> <Delta U+W>
0.000

> <U+W>
6.423

> <U>
8.781

> <W>
-2.358

> <W(PB)>
-4.373

> <W(SA)>
2.015

> <Valence>
13.328

> <Coulomb>
-8.387

> <VdW>
3.840

> <VdW6>
-9.744

> <VdW12>
13.584

> <Bond>
0.436

> <Angle>
3.478

> <Pdih>
9.415

> <Idih>
0.000

> <Tether>
0.000

$$$$
VeraChem MOL file


 22 22  0  0  0  0  0  0  0  0999 V2000     
   20.9622   20.9468   23.2219 C   0  0  0  0  0  0  0  0  0  0  0  0
   21.8356   20.2806   23.2138 H   0  0  0  0  0  0  0  0  0  0  0  0
   21.3386   21.9373   23.5119 H   0  0  0  0  0  0  0  0  0  0  0  0
   19.9367   20.5022   24.2924 C   0  0  0  0  0  0  0  0  0  0  0  0
   20.3705   20.6770   25.2865 H   0  0  0  0  0  0  0  0  0  0  0  0
   19.0491   21.1472   24.2366 H   0  0  0  0  0  0  0  0  0  0  0  0
   19.4987   19.0217   24.2112 C   0  0  0  0  0  0  0  0  0  0  0  0
   18.7264   18.8508   24.9736 H   0  0  0  0  0  0  0  0  0  0  0  0
   20.3426   18.3757   24.4896 H   0  0  0  0  0  0  0  0  0  0  0  0
   18.9420   18.5788   22.8360 C   0  0  0  0  0  0  0  0  0  0  0  0
   18.4604   17.6016   22.9719 H   0  0  0  0  0  0  0  0  0  0  0  0
   18.1533   19.2638   22.4986 H   0  0  0  0  0  0  0  0  0  0  0  0
   20.0436   18.4499   21.7600 C   0  0  0  0  0  0  0  0  0  0  0  0
   20.9705   18.1244   22.2537 H   0  0  0  0  0  0  0  0  0  0  0  0
   20.3394   19.7539   20.9846 C   0  0  0  0  0  0  0  0  0  0  0  0
   21.3182   19.6374   20.5019 H   0  0  0  0  0  0  0  0  0  0  0  0
   19.6128   19.8642   20.1685 H   0  0  0  0  0  0  0  0  0  0  0  0
   20.3443   21.0655   21.8091 C   0  0  0  0  0  0  0  0  0  0  0  0
   20.8999   21.8226   21.2391 H   0  0  0  0  0  0  0  0  0  0  0  0
   19.3193   21.4524   21.8901 H   0  0  0  0  0  0  0  0  0  0  0  0
   19.6519   17.4571   20.8197 O   0  0  0  0  0  0  0  0  0  0  0  0
   19.5433   16.6215   21.3202 H   0  0  0  0  0  0  0  0  0  0  0  0
  1  2  1  0  0  0  0
  1  3  1  0  0  0  0
  1  4  1  0  0  0  0
  4  5  1  0  0  0  0
  4  6  1  0  0  0  0
  4  7  1  0  0  0  0
  7  8  1  0  0  0  0
  7  9  1  0  0  0  0
  7 10  1  0  0  0  0
 10 11  1  0  0  0  0
 10 12  1  0  0  0  0
 10 13  1  0  0  0  0
 13 14  1  0  0  0  0
 13 15  1  0  0  0  0
 15 16  1  0  0  0  0
 15 17  1  0  0  0  0
  1 18  1  0  0  0  0
 15 18  1  0  0  0  0
 18 19  1  0  0  0  0
 18 20  1  0  0  0  0
 13 21  1  0  0  0  0
 21 22  1  0  0  0  0
M  END
> <VConfSearch Rank>
954

> <Conf_Id>
144

> <Delta U+W>
-3.291

> <U+W>
3.132

> <U>
5.411

> <W>
-2.279

> <W(PB)>
-4.300

> <W(SA)>
2.021

> <Valence>
11.909

> <Coulomb>
-8.733

> <VdW>
2.236

> <VdW6>
-8.936

> <VdW12>
11.172

> <Bond>
0.223

> <Angle>
2.457

> <Pdih>
9.228

> <Idih>
0.000

> <Tether>
0.000

$$$$
VeraChem MOL file


 22 22  0  0  0  0  0  0  0  0999 V2000     
   19.9954   18.9975   24.2939 C   0  0  0  0  0  0  0  0  0  0  0  0
   19.7562   18.5552   25.2707 H   0  0  0  0  0  0  0  0  0  0  0  0
   21.0243   19.3736   24.3744 H   0  0  0  0  0  0  0  0  0  0  0  0
   19.0035   20.1563   24.0378 C   0  0  0  0  0  0  0  0  0  0  0  0
   18.0621   19.7511   23.6425 H   0  0  0  0  0  0  0  0  0  0  0  0
   18.7421   20.6193   24.9992 H   0  0  0  0  0  0  0  0  0  0  0  0
   19.5245   21.2707   23.0983 C   0  0  0  0  0  0  0  0  0  0  0  0
   20.1293   21.9773   23.6829 H   0  0  0  0  0  0  0  0  0  0  0  0
   18.6607   21.8454   22.7371 H   0  0  0  0  0  0  0  0  0  0  0  0
   20.3652   20.8070   21.8832 C   0  0  0  0  0  0  0  0  0  0  0  0
   20.3775   21.6259   21.1513 H   0  0  0  0  0  0  0  0  0  0  0  0
   21.4084   20.6725   22.1969 H   0  0  0  0  0  0  0  0  0  0  0  0
   19.8660   19.5135   21.2012 C   0  0  0  0  0  0  0  0  0  0  0  0
   18.7686   19.4711   21.2504 H   0  0  0  0  0  0  0  0  0  0  0  0
   20.4633   18.2387   21.8393 C   0  0  0  0  0  0  0  0  0  0  0  0
   20.2799   17.3899   21.1671 H   0  0  0  0  0  0  0  0  0  0  0  0
   21.5541   18.3404   21.9088 H   0  0  0  0  0  0  0  0  0  0  0  0
   19.8981   17.8751   23.2329 C   0  0  0  0  0  0  0  0  0  0  0  0
   18.8507   17.5601   23.1300 H   0  0  0  0  0  0  0  0  0  0  0  0
   20.4402   16.9946   23.6039 H   0  0  0  0  0  0  0  0  0  0  0  0
   20.2635   19.5457   19.8369 O   0  0  0  0  0  0  0  0  0  0  0  0
   21.2421   19.5847   19.8348 H   0  0  0  0  0  0  0  0  0  0  0  0
  1  2  1  0  0  0  0
  1  3  1  0  0  0  0
  1  4  1  0  0  0  0
  4  5  1  0  0  0  0
  4  6  1  0  0  0  0
  4  7  1  0  0  0  0
  7  8  1  0  0  0  0
  7  9  1  0  0  0  0
  7 10  1  0  0  0  0
 10 11  1  0  0  0  0
 10 12  1  0  0  0  0
 10 13  1  0  0  0  0
 13 14  1  0  0  0  0
 13 15  1  0  0  0  0
 15 16  1  0  0  0  0
 15 17  1  0  0  0  0
  1 18  1  0  0  0  0
 15 18  1  0  0  0  0
 18 19  1  0  0  0  0
 18 20  1  0  0  0  0
 13 21  1  0  0  0  0
 21 22  1  0  0  0  0
M  END
> <VConfSearch Rank>
955

> <Conf_Id>
76

> <Delta U+W>
-3.175

> <U+W>
3.248

> <U>
5.336

> <W>
-2.088

> <W(PB)>
-4.098

> <W(SA)>
2.010

> <Valence>
12.390

> <Coulomb>
-9.270

> <VdW>
2.216

> <VdW6>
-8.967

> <VdW12>
11.183

> <Bond>
0.218

> <Angle>
2.426

> <Pdih>
9.745

> <Idih>
0.000

> <Tether>
0.000

$$$$
VeraChem MOL file


 22 22  0  0  0  0  0  0  0  0999 V2000     
   21.6650   20.2605   23.3771 C   0  0  0  0  0  0  0  0  0  0  0  0
   21.8020   20.7846   24.3328 H   0  0  0  0  0  0  0  0  0  0  0  0
   22.6702   20.1598   22.9455 H   0  0  0  0  0  0  0  0  0  0  0  0
   20.8093   21.1579   22.4514 C   0  0  0  0  0  0  0  0  0  0  0  0
   20.0529   21.6849   23.0485 H   0  0  0  0  0  0  0  0  0  0  0  0
   21.4604   21.9430   22.0433 H   0  0  0  0  0  0  0  0  0  0  0  0
   20.1183   20.4201   21.2810 C   0  0  0  0  0  0  0  0  0  0  0  0
   20.7662   19.6307   20.8761 H   0  0  0  0  0  0  0  0  0  0  0  0
   19.9686   21.1398   20.4650 H   0  0  0  0  0  0  0  0  0  0  0  0
   18.7301   19.8494   21.6676 C   0  0  0  0  0  0  0  0  0  0  0  0
   18.1315   20.6421   22.1344 H   0  0  0  0  0  0  0  0  0  0  0  0
   18.1946   19.5784   20.7483 H   0  0  0  0  0  0  0  0  0  0  0  0
   18.7339   18.6152   22.5980 C   0  0  0  0  0  0  0  0  0  0  0  0
   17.6937   18.4549   22.9162 H   0  0  0  0  0  0  0  0  0  0  0  0
   19.5863   18.7615   23.8836 C   0  0  0  0  0  0  0  0  0  0  0  0
   19.2480   19.6343   24.4569 H   0  0  0  0  0  0  0  0  0  0  0  0
   19.3786   17.8912   24.5193 H   0  0  0  0  0  0  0  0  0  0  0  0
   21.1180   18.8396   23.6533 C   0  0  0  0  0  0  0  0  0  0  0  0
   21.6297   18.4486   24.5432 H   0  0  0  0  0  0  0  0  0  0  0  0
   21.4103   18.1711   22.8329 H   0  0  0  0  0  0  0  0  0  0  0  0
   19.1533   17.4718   21.8600 O   0  0  0  0  0  0  0  0  0  0  0  0
   19.1914   16.7282   22.4956 H   0  0  0  0  0  0  0  0  0  0  0  0
  1  2  1  0  0  0  0
  1  3  1  0  0  0  0
  1  4  1  0  0  0  0
  4  5  1  0  0  0  0
  4  6  1  0  0  0  0
  4  7  1  0  0  0  0
  7  8  1  0  0  0  0
  7  9  1  0  0  0  0
  7 10  1  0  0  0  0
 10 11  1  0  0  0  0
 10 12  1  0  0  0  0
 10 13  1  0  0  0  0
 13 14  1  0  0  0  0
 13 15  1  0  0  0  0
 15 16  1  0  0  0  0
 15 17  1  0  0  0  0
  1 18  1  0  0  0  0
 15 18  1  0  0  0  0
 18 19  1  0  0  0  0
 18 20  1  0  0  0  0
 13 21  1  0  0  0  0
 21 22  1  0  0  0  0
M  END
> <VConfSearch Rank>
956

> <Conf_Id>
95

> <Delta U+W>
-2.289

> <U+W>
4.134

> <U>
6.373

> <W>
-2.240

> <W(PB)>
-4.254

> <W(SA)>
2.015

> <Valence>
12.093

> <Coulomb>
-8.058

> <VdW>
2.339

> <VdW6>
-9.683

> <VdW12>
12.022

> <Bond>
0.268

> <Angle>
3.005

> <Pdih>
8.820

> <Idih>
0.000

> <Tether>
0.000

$$$$
VeraChem MOL file


 22 22  0  0  0  0  0  0  0  0999 V2000     
   20.2806   21.4968   22.3787 C   0  0  0  0  0  0  0  0  0  0  0  0
   20.5077   21.9918   21.4247 H   0  0  0  0  0  0  0  0  0  0  0  0
   20.1743   22.3045   23.1156 H   0  0  0  0  0  0  0  0  0  0  0  0
   21.4934   20.6188   22.7692 C   0  0  0  0  0  0  0  0  0  0  0  0
   21.9350   20.1813   21.8636 H   0  0  0  0  0  0  0  0  0  0  0  0
   22.2687   21.2768   23.1850 H   0  0  0  0  0  0  0  0  0  0  0  0
   21.1887   19.4958   23.7877 C   0  0  0  0  0  0  0  0  0  0  0  0
   20.4622   19.8332   24.5394 H   0  0  0  0  0  0  0  0  0  0  0  0
   22.1140   19.2736   24.3361 H   0  0  0  0  0  0  0  0  0  0  0  0
   20.7159   18.1855   23.1087 C   0  0  0  0  0  0  0  0  0  0  0  0
   21.4179   17.9234   22.3066 H   0  0  0  0  0  0  0  0  0  0  0  0
   20.7876   17.3672   23.8369 H   0  0  0  0  0  0  0  0  0  0  0  0
   19.2833   18.1967   22.5280 C   0  0  0  0  0  0  0  0  0  0  0  0
   19.1721   17.2748   21.9391 H   0  0  0  0  0  0  0  0  0  0  0  0
   18.9666   19.3814   21.5812 C   0  0  0  0  0  0  0  0  0  0  0  0
   19.6786   19.3943   20.7461 H   0  0  0  0  0  0  0  0  0  0  0  0
   17.9835   19.1853   21.1340 H   0  0  0  0  0  0  0  0  0  0  0  0
   18.9172   20.7744   22.2614 C   0  0  0  0  0  0  0  0  0  0  0  0
   18.2402   21.4225   21.6888 H   0  0  0  0  0  0  0  0  0  0  0  0
   18.4621   20.6877   23.2569 H   0  0  0  0  0  0  0  0  0  0  0  0
   18.3408   18.1577   23.5953 O   0  0  0  0  0  0  0  0  0  0  0  0
   18.5958   17.4063   24.1685 H   0  0  0  0  0  0  0  0  0  0  0  0
  1  2  1  0  0  0  0
  1  3  1  0  0  0  0
  1  4  1  0  0  0  0
  4  5  1  0  0  0  0
  4  6  1  0  0  0  0
  4  7  1  0  0  0  0
  7  8  1  0  0  0  0
  7  9  1  0  0  0  0
  7 10  1  0  0  0  0
 10 11  1  0  0  0  0
 10 12  1  0  0  0  0
 10 13  1  0  0  0  0
 13 14  1  0  0  0  0
 13 15  1  0  0  0  0
 15 16  1  0  0  0  0
 15 17  1  0  0  0  0
  1 18  1  0  0  0  0
 15 18  1  0  0  0  0
 18 19  1  0  0  0  0
 18 20  1  0  0  0  0
 13 21  1  0  0  0  0
 21 22  1  0  0  0  0
M  END
> <VConfSearch Rank>
957

> <Conf_Id>
41

> <Delta U+W>
-2.114

> <U+W>
4.310

> <U>
6.598

> <W>
-2.289

> <W(PB)>
-4.294

> <W(SA)>
2.005

> <Valence>
12.082

> <Coulomb>
-7.801

> <VdW>
2.317

> <VdW6>
-9.658

> <VdW12>
11.975

> <Bond>
0.267

> <Angle>
3.051

> <Pdih>
8.764

> <Idih>
0.000

> <Tether>
0.000

$$$$
VeraChem MOL file


 22 22  0  0  0  0  0  0  0  0999 V2000     
   19.3988   19.4968   24.2327 C   0  0  0  0  0  0  0  0  0  0  0  0
   18.7588   19.3344   25.1105 H   0  0  0  0  0  0  0  0  0  0  0  0
   20.3957   19.7478   24.6206 H   0  0  0  0  0  0  0  0  0  0  0  0
   18.8112   20.6792   23.4302 C   0  0  0  0  0  0  0  0  0  0  0  0
   17.8439   20.3866   22.9996 H   0  0  0  0  0  0  0  0  0  0  0  0
   18.5948   21.5019   24.1252 H   0  0  0  0  0  0  0  0  0  0  0  0
   19.7303   21.2194   22.3127 C   0  0  0  0  0  0  0  0  0  0  0  0
   20.6063   21.7049   22.7630 H   0  0  0  0  0  0  0  0  0  0  0  0
   19.1899   22.0176   21.7865 H   0  0  0  0  0  0  0  0  0  0  0  0
   20.1860   20.1664   21.2665 C   0  0  0  0  0  0  0  0  0  0  0  0
   19.3159   19.6262   20.8721 H   0  0  0  0  0  0  0  0  0  0  0  0
   20.6100   20.7092   20.4120 H   0  0  0  0  0  0  0  0  0  0  0  0
   21.2605   19.1558   21.7440 C   0  0  0  0  0  0  0  0  0  0  0  0
   21.6977   18.7093   20.8392 H   0  0  0  0  0  0  0  0  0  0  0  0
   20.7425   17.9719   22.6016 C   0  0  0  0  0  0  0  0  0  0  0  0
   20.5760   17.1171   21.9334 H   0  0  0  0  0  0  0  0  0  0  0  0
   21.5384   17.6512   23.2866 H   0  0  0  0  0  0  0  0  0  0  0  0
   19.4434   18.1857   23.4173 C   0  0  0  0  0  0  0  0  0  0  0  0
   18.5717   18.1322   22.7513 H   0  0  0  0  0  0  0  0  0  0  0  0
   19.3379   17.3385   24.1086 H   0  0  0  0  0  0  0  0  0  0  0  0
   22.3053   19.8307   22.4395 O   0  0  0  0  0  0  0  0  0  0  0  0
   22.9690   19.1528   22.6798 H   0  0  0  0  0  0  0  0  0  0  0  0
  1  2  1  0  0  0  0
  1  3  1  0  0  0  0
  1  4  1  0  0  0  0
  4  5  1  0  0  0  0
  4  6  1  0  0  0  0
  4  7  1  0  0  0  0
  7  8  1  0  0  0  0
  7  9  1  0  0  0  0
  7 10  1  0  0  0  0
 10 11  1  0  0  0  0
 10 12  1  0  0  0  0
 10 13  1  0  0  0  0
 13 14  1  0  0  0  0
 13 15  1  0  0  0  0
 15 16  1  0  0  0  0
 15 17  1  0  0  0  0
  1 18  1  0  0  0  0
 15 18  1  0  0  0  0
 18 19  1  0  0  0  0
 18 20  1  0  0  0  0
 13 21  1  0  0  0  0
 21 22  1  0  0  0  0
M  END
> <VConfSearch Rank>
958

> <Conf_Id>
104

> <Delta U+W>
-1.172

> <U+W>
5.252

> <U>
7.482

> <W>
-2.230

> <W(PB)>
-4.220

> <W(SA)>
1.990

> <Valence>
12.309

> <Coulomb>
-7.084

> <VdW>
2.258

> <VdW6>
-9.770

> <VdW12>
12.028

> <Bond>
0.284

> <Angle>
3.491

> <Pdih>
8.535

> <Idih>
0.000

> <Tether>
0.000

$$$$
VeraChem MOL file


 22 22  0  0  0  0  0  0  0  0999 V2000     
   18.7719   19.0864   21.7826 C   0  0  0  0  0  0  0  0  0  0  0  0
   18.1837   18.8221   22.6718 H   0  0  0  0  0  0  0  0  0  0  0  0
   18.1454   18.8275   20.9180 H   0  0  0  0  0  0  0  0  0  0  0  0
   20.0622   18.2390   21.7021 C   0  0  0  0  0  0  0  0  0  0  0  0
   19.8058   17.2473   21.3048 H   0  0  0  0  0  0  0  0  0  0  0  0
   20.7390   18.6771   20.9570 H   0  0  0  0  0  0  0  0  0  0  0  0
   20.8135   18.0309   23.0415 C   0  0  0  0  0  0  0  0  0  0  0  0
   21.8722   17.8379   22.8201 H   0  0  0  0  0  0  0  0  0  0  0  0
   20.4412   17.1091   23.5090 H   0  0  0  0  0  0  0  0  0  0  0  0
   20.7124   19.1647   24.0977 C   0  0  0  0  0  0  0  0  0  0  0  0
   19.7464   19.0895   24.6136 H   0  0  0  0  0  0  0  0  0  0  0  0
   21.4673   18.9749   24.8718 H   0  0  0  0  0  0  0  0  0  0  0  0
   20.8947   20.6149   23.5941 C   0  0  0  0  0  0  0  0  0  0  0  0
   21.1890   21.2267   24.4589 H   0  0  0  0  0  0  0  0  0  0  0  0
   19.5886   21.2259   23.0383 C   0  0  0  0  0  0  0  0  0  0  0  0
   18.8134   21.1628   23.8131 H   0  0  0  0  0  0  0  0  0  0  0  0
   19.7554   22.2985   22.8741 H   0  0  0  0  0  0  0  0  0  0  0  0
   19.0397   20.6093   21.7279 C   0  0  0  0  0  0  0  0  0  0  0  0
   18.0958   21.1170   21.4870 H   0  0  0  0  0  0  0  0  0  0  0  0
   19.7186   20.8386   20.8954 H   0  0  0  0  0  0  0  0  0  0  0  0
   21.9197   20.6774   22.6145 O   0  0  0  0  0  0  0  0  0  0  0  0
   21.6278   20.0501   21.9235 H   0  0  0  0  0  0  0  0  0  0  0  0
  1  2  1  0  0  0  0
  1  3  1  0  0  0  0
  1  4  1  0  0  0  0
  4  5  1  0  0  0  0
  4  6  1  0  0  0  0
  4  7  1  0  0  0  0
  7  8  1  0  0  0  0
  7  9  1  0  0  0  0
  7 10  1  0  0  0  0
 10 11  1  0  0  0  0
 10 12  1  0  0  0  0
 10 13  1  0  0  0  0
 13 14  1  0  0  0  0
 13 15  1  0  0  0  0
 15 16  1  0  0  0  0
 15 17  1  0  0  0  0
  1 18  1  0  0  0  0
 15 18  1  0  0  0  0
 18 19  1  0  0  0  0
 18 20  1  0  0  0  0
 13 21  1  0  0  0  0
 21 22  1  0  0  0  0
M  END
> <VConfSearch Rank>
959

> <Conf_Id>
99

> <Delta U+W>
-3.852

> <U+W>
2.572

> <U>
3.922

> <W>
-1.350

> <W(PB)>
-3.345

> <W(SA)>
1.995

> <Valence>
12.571

> <Coulomb>
-10.581

> <VdW>
1.932

> <VdW6>
-10.483

> <VdW12>
12.415

> <Bond>
0.268

> <Angle>
3.728

> <Pdih>
8.575

> <Idih>
0.000

> <Tether>
0.000

$$$$
VeraChem MOL file


 22 22  0  0  0  0  0  0  0  0999 V2000     
   19.4678   20.4855   23.9474 C   0  0  0  0  0  0  0  0  0  0  0  0
   19.5635   21.2636   24.7173 H   0  0  0  0  0  0  0  0  0  0  0  0
   18.4434   20.1048   24.0554 H   0  0  0  0  0  0  0  0  0  0  0  0
   20.4950   19.3620   24.2739 C   0  0  0  0  0  0  0  0  0  0  0  0
   21.0351   19.6537   25.1852 H   0  0  0  0  0  0  0  0  0  0  0  0
   19.9699   18.4351   24.5405 H   0  0  0  0  0  0  0  0  0  0  0  0
   21.5479   19.0646   23.1758 C   0  0  0  0  0  0  0  0  0  0  0  0
   22.3158   18.4047   23.6019 H   0  0  0  0  0  0  0  0  0  0  0  0
   22.0866   19.9854   22.9202 H   0  0  0  0  0  0  0  0  0  0  0  0
   21.0108   18.3945   21.8807 C   0  0  0  0  0  0  0  0  0  0  0  0
   21.7232   18.5949   21.0701 H   0  0  0  0  0  0  0  0  0  0  0  0
   21.0294   17.3054   22.0204 H   0  0  0  0  0  0  0  0  0  0  0  0
   19.5921   18.7778   21.3923 C   0  0  0  0  0  0  0  0  0  0  0  0
   19.4900   18.3873   20.3696 H   0  0  0  0  0  0  0  0  0  0  0  0
   19.2752   20.2923   21.3292 C   0  0  0  0  0  0  0  0  0  0  0  0
   19.7822   20.7171   20.4532 H   0  0  0  0  0  0  0  0  0  0  0  0
   18.2018   20.3973   21.1222 H   0  0  0  0  0  0  0  0  0  0  0  0
   19.6247   21.1680   22.5645 C   0  0  0  0  0  0  0  0  0  0  0  0
   20.6420   21.5654   22.4608 H   0  0  0  0  0  0  0  0  0  0  0  0
   18.9779   22.0556   22.5408 H   0  0  0  0  0  0  0  0  0  0  0  0
   18.6202   18.1209   22.1904 O   0  0  0  0  0  0  0  0  0  0  0  0
   18.7513   18.5002   23.0825 H   0  0  0  0  0  0  0  0  0  0  0  0
  1  2  1  0  0  0  0
  1  3  1  0  0  0  0
  1  4  1  0  0  0  0
  4  5  1  0  0  0  0
  4  6  1  0  0  0  0
  4  7  1  0  0  0  0
  7  8  1  0  0  0  0
  7  9  1  0  0  0  0
  7 10  1  0  0  0  0
 10 11  1  0  0  0  0
 10 12  1  0  0  0  0
 10 13  1  0  0  0  0
 13 14  1  0  0  0  0
 13 15  1  0  0  0  0
 15 16  1  0  0  0  0
 15 17  1  0  0  0  0
  1 18  1  0  0  0  0
 15 18  1  0  0  0  0
 18 19  1  0  0  0  0
 18 20  1  0  0  0  0
 13 21  1  0  0  0  0
 21 22  1  0  0  0  0
M  END
> <VConfSearch Rank>
960

> <Conf_Id>
98

> <Delta U+W>
0.930

> <U+W>
7.353

> <U>
8.455

> <W>
-1.102

> <W(PB)>
-3.101

> <W(SA)>
2.000

> <Valence>
15.601

> <Coulomb>
-10.573

> <VdW>
3.427

> <VdW6>
-11.360

> <VdW12>
14.787

> <Bond>
0.471

> <Angle>
5.445

> <Pdih>
9.685

> <Idih>
0.000

> <Tether>
0.000

$$$$
VeraChem MOL file


 22 22  0  0  0  0  0  0  0  0999 V2000     
   19.2945   19.6431   21.0987 C   0  0  0  0  0  0  0  0  0  0  0  0
   19.8248   20.5964   20.9771 H   0  0  0  0  0  0  0  0  0  0  0  0
   18.7789   19.4797   20.1426 H   0  0  0  0  0  0  0  0  0  0  0  0
   18.2297   19.7749   22.2172 C   0  0  0  0  0  0  0  0  0  0  0  0
   17.5390   20.5771   21.9233 H   0  0  0  0  0  0  0  0  0  0  0  0
   17.6232   18.8600   22.2571 H   0  0  0  0  0  0  0  0  0  0  0  0
   18.7649   20.0952   23.6404 C   0  0  0  0  0  0  0  0  0  0  0  0
   18.7508   19.1894   24.2605 H   0  0  0  0  0  0  0  0  0  0  0  0
   18.0575   20.7811   24.1260 H   0  0  0  0  0  0  0  0  0  0  0  0
   20.1806   20.7291   23.6828 C   0  0  0  0  0  0  0  0  0  0  0  0
   20.2066   21.5967   23.0119 H   0  0  0  0  0  0  0  0  0  0  0  0
   20.3426   21.1444   24.6867 H   0  0  0  0  0  0  0  0  0  0  0  0
   21.3625   19.7776   23.3343 C   0  0  0  0  0  0  0  0  0  0  0  0
   22.0269   20.3048   22.6346 H   0  0  0  0  0  0  0  0  0  0  0  0
   20.9733   18.4187   22.7000 C   0  0  0  0  0  0  0  0  0  0  0  0
   21.8729   17.7953   22.6154 H   0  0  0  0  0  0  0  0  0  0  0  0
   20.3096   17.8708   23.3795 H   0  0  0  0  0  0  0  0  0  0  0  0
   20.3208   18.5031   21.2975 C   0  0  0  0  0  0  0  0  0  0  0  0
   21.1117   18.6202   20.5441 H   0  0  0  0  0  0  0  0  0  0  0  0
   19.8374   17.5410   21.0799 H   0  0  0  0  0  0  0  0  0  0  0  0
   22.0843   19.4993   24.5288 O   0  0  0  0  0  0  0  0  0  0  0  0
   22.8527   18.9478   24.2728 H   0  0  0  0  0  0  0  0  0  0  0  0
  1  2  1  0  0  0  0
  1  3  1  0  0  0  0
  1  4  1  0  0  0  0
  4  5  1  0  0  0  0
  4  6  1  0  0  0  0
  4  7  1  0  0  0  0
  7  8  1  0  0  0  0
  7  9  1  0  0  0  0
  7 10  1  0  0  0  0
 10 11  1  0  0  0  0
 10 12  1  0  0  0  0
 10 13  1  0  0  0  0
 13 14  1  0  0  0  0
 13 15  1  0  0  0  0
 15 16  1  0  0  0  0
 15 17  1  0  0  0  0
  1 18  1  0  0  0  0
 15 18  1  0  0  0  0
 18 19  1  0  0  0  0
 18 20  1  0  0  0  0
 13 21  1  0  0  0  0
 21 22  1  0  0  0  0
M  END
> <VConfSearch Rank>
961

> <Conf_Id>
141

> <Delta U+W>
0.000

> <U+W>
6.423

> <U>
8.781

> <W>
-2.358

> <W(PB)>
-4.373

> <W(SA)>
2.015

> <Valence>
13.328

> <Coulomb>
-8.387

> <VdW>
3.840

> <VdW6>
-9.744

> <VdW12>
13.584

> <Bond>
0.436

> <Angle>
3.478

> <Pdih>
9.415

> <Idih>
0.000

> <Tether>
0.000

$$$$
VeraChem MOL file


 22 22  0  0  0  0  0  0  0  0999 V2000     
   21.0779   20.8439   23.2436 C   0  0  0  0  0  0  0  0  0  0  0  0
   21.4677   20.9496   22.2221 H   0  0  0  0  0  0  0  0  0  0  0  0
   21.5999   21.5987   23.8475 H   0  0  0  0  0  0  0  0  0  0  0  0
   21.4252   19.4532   23.8274 C   0  0  0  0  0  0  0  0  0  0  0  0
   22.5109   19.4020   23.9874 H   0  0  0  0  0  0  0  0  0  0  0  0
   20.9719   19.3526   24.8230 H   0  0  0  0  0  0  0  0  0  0  0  0
   21.0096   18.2482   22.9524 C   0  0  0  0  0  0  0  0  0  0  0  0
   21.2471   17.3275   23.5024 H   0  0  0  0  0  0  0  0  0  0  0  0
   21.6301   18.2242   22.0461 H   0  0  0  0  0  0  0  0  0  0  0  0
   19.5138   18.2141   22.5542 C   0  0  0  0  0  0  0  0  0  0  0  0
   19.3017   17.2173   22.1456 H   0  0  0  0  0  0  0  0  0  0  0  0
   18.8747   18.3234   23.4400 H   0  0  0  0  0  0  0  0  0  0  0  0
   19.1545   19.2782   21.4930 C   0  0  0  0  0  0  0  0  0  0  0  0
   20.0275   19.4215   20.8401 H   0  0  0  0  0  0  0  0  0  0  0  0
   18.7519   20.6531   22.0732 C   0  0  0  0  0  0  0  0  0  0  0  0
   18.8361   21.3912   21.2651 H   0  0  0  0  0  0  0  0  0  0  0  0
   17.6900   20.6329   22.3525 H   0  0  0  0  0  0  0  0  0  0  0  0
   19.5640   21.1563   23.2929 C   0  0  0  0  0  0  0  0  0  0  0  0
   19.4263   22.2436   23.3671 H   0  0  0  0  0  0  0  0  0  0  0  0
   19.1355   20.7421   24.2157 H   0  0  0  0  0  0  0  0  0  0  0  0
   18.0699   18.7959   20.7092 O   0  0  0  0  0  0  0  0  0  0  0  0
   18.3727   17.9631   20.2903 H   0  0  0  0  0  0  0  0  0  0  0  0
  1  2  1  0  0  0  0
  1  3  1  0  0  0  0
  1  4  1  0  0  0  0
  4  5  1  0  0  0  0
  4  6  1  0  0  0  0
  4  7  1  0  0  0  0
  7  8  1  0  0  0  0
  7  9  1  0  0  0  0
  7 10  1  0  0  0  0
 10 11  1  0  0  0  0
 10 12  1  0  0  0  0
 10 13  1  0  0  0  0
 13 14  1  0  0  0  0
 13 15  1  0  0  0  0
 15 16  1  0  0  0  0
 15 17  1  0  0  0  0
  1 18  1  0  0  0  0
 15 18  1  0  0  0  0
 18 19  1  0  0  0  0
 18 20  1  0  0  0  0
 13 21  1  0  0  0  0
 21 22  1  0  0  0  0
M  END
> <VConfSearch Rank>
962

> <Conf_Id>
144

> <Delta U+W>
-3.291

> <U+W>
3.132

> <U>
5.411

> <W>
-2.279

> <W(PB)>
-4.300

> <W(SA)>
2.021

> <Valence>
11.909

> <Coulomb>
-8.733

> <VdW>
2.236

> <VdW6>
-8.936

> <VdW12>
11.172

> <Bond>
0.223

> <Angle>
2.457

> <Pdih>
9.228

> <Idih>
0.000

> <Tether>
0.000

$$$$
VeraChem MOL file


 22 22  0  0  0  0  0  0  0  0999 V2000     
   20.4577   21.1630   22.2757 C   0  0  0  0  0  0  0  0  0  0  0  0
   20.9294   22.0437   21.8188 H   0  0  0  0  0  0  0  0  0  0  0  0
   19.8601   21.5403   23.1166 H   0  0  0  0  0  0  0  0  0  0  0  0
   21.5806   20.2240   22.7751 C   0  0  0  0  0  0  0  0  0  0  0  0
   21.9467   19.6143   21.9378 H   0  0  0  0  0  0  0  0  0  0  0  0
   22.4388   20.8330   23.0909 H   0  0  0  0  0  0  0  0  0  0  0  0
   21.1894   19.3031   23.9560 C   0  0  0  0  0  0  0  0  0  0  0  0
   21.2996   19.8610   24.8960 H   0  0  0  0  0  0  0  0  0  0  0  0
   21.9199   18.4842   24.0080 H   0  0  0  0  0  0  0  0  0  0  0  0
   19.7621   18.7036   23.9157 C   0  0  0  0  0  0  0  0  0  0  0  0
   19.7401   17.8427   24.5975 H   0  0  0  0  0  0  0  0  0  0  0  0
   19.0536   19.4312   24.3321 H   0  0  0  0  0  0  0  0  0  0  0  0
   19.2793   18.2644   22.5151 C   0  0  0  0  0  0  0  0  0  0  0  0
   20.1312   17.8813   21.9354 H   0  0  0  0  0  0  0  0  0  0  0  0
   18.5966   19.4121   21.7369 C   0  0  0  0  0  0  0  0  0  0  0  0
   18.0603   18.9849   20.8790 H   0  0  0  0  0  0  0  0  0  0  0  0
   17.8318   19.8800   22.3703 H   0  0  0  0  0  0  0  0  0  0  0  0
   19.5535   20.5056   21.2055 C   0  0  0  0  0  0  0  0  0  0  0  0
   20.1800   20.0846   20.4073 H   0  0  0  0  0  0  0  0  0  0  0  0
   18.9484   21.2890   20.7291 H   0  0  0  0  0  0  0  0  0  0  0  0
   18.3280   17.2209   22.6773 O   0  0  0  0  0  0  0  0  0  0  0  0
   17.5890   17.5987   23.1974 H   0  0  0  0  0  0  0  0  0  0  0  0
  1  2  1  0  0  0  0
  1  3  1  0  0  0  0
  1  4  1  0  0  0  0
  4  5  1  0  0  0  0
  4  6  1  0  0  0  0
  4  7  1  0  0  0  0
  7  8  1  0  0  0  0
  7  9  1  0  0  0  0
  7 10  1  0  0  0  0
 10 11  1  0  0  0  0
 10 12  1  0  0  0  0
 10 13  1  0  0  0  0
 13 14  1  0  0  0  0
 13 15  1  0  0  0  0
 15 16  1  0  0  0  0
 15 17  1  0  0  0  0
  1 18  1  0  0  0  0
 15 18  1  0  0  0  0
 18 19  1  0  0  0  0
 18 20  1  0  0  0  0
 13 21  1  0  0  0  0
 21 22  1  0  0  0  0
M  END
> <VConfSearch Rank>
963

> <Conf_Id>
76

> <Delta U+W>
-3.175

> <U+W>
3.248

> <U>
5.336

> <W>
-2.088

> <W(PB)>
-4.098

> <W(SA)>
2.010

> <Valence>
12.390

> <Coulomb>
-9.270

> <VdW>
2.216

> <VdW6>
-8.967

> <VdW12>
11.183

> <Bond>
0.218

> <Angle>
2.426

> <Pdih>
9.745

> <Idih>
0.000

> <Tether>
0.000

$$$$
VeraChem MOL file


 22 22  0  0  0  0  0  0  0  0999 V2000     
   19.0578   17.9814   22.7918 C   0  0  0  0  0  0  0  0  0  0  0  0
   18.8241   17.2868   21.9734 H   0  0  0  0  0  0  0  0  0  0  0  0
   18.6472   17.5204   23.7005 H   0  0  0  0  0  0  0  0  0  0  0  0
   18.3142   19.3119   22.5245 C   0  0  0  0  0  0  0  0  0  0  0  0
   18.3051   19.5164   21.4454 H   0  0  0  0  0  0  0  0  0  0  0  0
   17.2613   19.1748   22.8063 H   0  0  0  0  0  0  0  0  0  0  0  0
   18.8794   20.5397   23.2760 C   0  0  0  0  0  0  0  0  0  0  0  0
   19.2163   20.2633   24.2844 H   0  0  0  0  0  0  0  0  0  0  0  0
   18.0623   21.2605   23.4146 H   0  0  0  0  0  0  0  0  0  0  0  0
   20.0107   21.2537   22.4934 C   0  0  0  0  0  0  0  0  0  0  0  0
   19.6708   21.4527   21.4690 H   0  0  0  0  0  0  0  0  0  0  0  0
   20.1801   22.2402   22.9446 H   0  0  0  0  0  0  0  0  0  0  0  0
   21.3688   20.5182   22.4329 C   0  0  0  0  0  0  0  0  0  0  0  0
   21.9894   21.0578   21.7030 H   0  0  0  0  0  0  0  0  0  0  0  0
   21.2988   19.0418   21.9684 C   0  0  0  0  0  0  0  0  0  0  0  0
   20.8226   18.9846   20.9810 H   0  0  0  0  0  0  0  0  0  0  0  0
   22.3286   18.6919   21.8209 H   0  0  0  0  0  0  0  0  0  0  0  0
   20.5939   18.0736   22.9538 C   0  0  0  0  0  0  0  0  0  0  0  0
   21.0083   17.0657   22.8165 H   0  0  0  0  0  0  0  0  0  0  0  0
   20.8350   18.3483   23.9891 H   0  0  0  0  0  0  0  0  0  0  0  0
   22.0054   20.6018   23.7041 O   0  0  0  0  0  0  0  0  0  0  0  0
   22.8322   20.0821   23.6367 H   0  0  0  0  0  0  0  0  0  0  0  0
  1  2  1  0  0  0  0
  1  3  1  0  0  0  0
  1  4  1  0  0  0  0
  4  5  1  0  0  0  0
  4  6  1  0  0  0  0
  4  7  1  0  0  0  0
  7  8  1  0  0  0  0
  7  9  1  0  0  0  0
  7 10  1  0  0  0  0
 10 11  1  0  0  0  0
 10 12  1  0  0  0  0
 10 13  1  0  0  0  0
 13 14  1  0  0  0  0
 13 15  1  0  0  0  0
 15 16  1  0  0  0  0
 15 17  1  0  0  0  0
  1 18  1  0  0  0  0
 15 18  1  0  0  0  0
 18 19  1  0  0  0  0
 18 20  1  0  0  0  0
 13 21  1  0  0  0  0
 21 22  1  0  0  0  0
M  END
> <VConfSearch Rank>
964

> <Conf_Id>
95

> <Delta U+W>
-2.289

> <U+W>
4.134

> <U>
6.373

> <W>
-2.240

> <W(PB)>
-4.254

> <W(SA)>
2.015

> <Valence>
12.093

> <Coulomb>
-8.058

> <VdW>
2.339

> <VdW6>
-9.683

> <VdW12>
12.022

> <Bond>
0.268

> <Angle>
3.005

> <Pdih>
8.820

> <Idih>
0.000

> <Tether>
0.000

$$$$
VeraChem MOL file


 22 22  0  0  0  0  0  0  0  0999 V2000     
   20.4891   20.5949   21.1187 C   0  0  0  0  0  0  0  0  0  0  0  0
   20.9234   20.2033   20.1888 H   0  0  0  0  0  0  0  0  0  0  0  0
   20.3198   21.6656   20.9407 H   0  0  0  0  0  0  0  0  0  0  0  0
   21.5357   20.4340   22.2470 C   0  0  0  0  0  0  0  0  0  0  0  0
   22.0945   19.5003   22.0973 H   0  0  0  0  0  0  0  0  0  0  0  0
   22.2757   21.2389   22.1407 H   0  0  0  0  0  0  0  0  0  0  0  0
   20.9618   20.4660   23.6827 C   0  0  0  0  0  0  0  0  0  0  0  0
   20.1429   21.1938   23.7627 H   0  0  0  0  0  0  0  0  0  0  0  0
   21.7525   20.8211   24.3573 H   0  0  0  0  0  0  0  0  0  0  0  0
   20.5116   19.0682   24.1774 C   0  0  0  0  0  0  0  0  0  0  0  0
   21.3216   18.3480   24.0043 H   0  0  0  0  0  0  0  0  0  0  0  0
   20.3838   19.1059   25.2670 H   0  0  0  0  0  0  0  0  0  0  0  0
   19.2119   18.5100   23.5537 C   0  0  0  0  0  0  0  0  0  0  0  0
   19.1321   17.4605   23.8721 H   0  0  0  0  0  0  0  0  0  0  0  0
   19.1688   18.5192   22.0050 C   0  0  0  0  0  0  0  0  0  0  0  0
   20.0173   17.9508   21.6032 H   0  0  0  0  0  0  0  0  0  0  0  0
   18.2688   17.9684   21.7024 H   0  0  0  0  0  0  0  0  0  0  0  0
   19.1138   19.9263   21.3551 C   0  0  0  0  0  0  0  0  0  0  0  0
   18.6062   19.8467   20.3844 H   0  0  0  0  0  0  0  0  0  0  0  0
   18.4823   20.5917   21.9585 H   0  0  0  0  0  0  0  0  0  0  0  0
   18.0937   19.2191   24.0786 O   0  0  0  0  0  0  0  0  0  0  0  0
   18.1789   19.1971   25.0536 H   0  0  0  0  0  0  0  0  0  0  0  0
  1  2  1  0  0  0  0
  1  3  1  0  0  0  0
  1  4  1  0  0  0  0
  4  5  1  0  0  0  0
  4  6  1  0  0  0  0
  4  7  1  0  0  0  0
  7  8  1  0  0  0  0
  7  9  1  0  0  0  0
  7 10  1  0  0  0  0
 10 11  1  0  0  0  0
 10 12  1  0  0  0  0
 10 13  1  0  0  0  0
 13 14  1  0  0  0  0
 13 15  1  0  0  0  0
 15 16  1  0  0  0  0
 15 17  1  0  0  0  0
  1 18  1  0  0  0  0
 15 18  1  0  0  0  0
 18 19  1  0  0  0  0
 18 20  1  0  0  0  0
 13 21  1  0  0  0  0
 21 22  1  0  0  0  0
M  END
> <VConfSearch Rank>
965

> <Conf_Id>
41

> <Delta U+W>
-2.114

> <U+W>
4.310

> <U>
6.598

> <W>
-2.289

> <W(PB)>
-4.294

> <W(SA)>
2.005

> <Valence>
12.082

> <Coulomb>
-7.801

> <VdW>
2.317

> <VdW6>
-9.658

> <VdW12>
11.975

> <Bond>
0.267

> <Angle>
3.051

> <Pdih>
8.764

> <Idih>
0.000

> <Tether>
0.000

$$$$
VeraChem MOL file


 22 22  0  0  0  0  0  0  0  0999 V2000     
   21.7396   19.6013   22.5231 C   0  0  0  0  0  0  0  0  0  0  0  0
   22.8267   19.4535   22.5768 H   0  0  0  0  0  0  0  0  0  0  0  0
   21.5452   20.1144   21.5713 H   0  0  0  0  0  0  0  0  0  0  0  0
   21.3225   20.4885   23.7174 C   0  0  0  0  0  0  0  0  0  0  0  0
   21.4664   19.9344   24.6548 H   0  0  0  0  0  0  0  0  0  0  0  0
   22.0026   21.3496   23.7691 H   0  0  0  0  0  0  0  0  0  0  0  0
   19.8740   21.0200   23.6502 C   0  0  0  0  0  0  0  0  0  0  0  0
   19.7882   21.7442   22.8292 H   0  0  0  0  0  0  0  0  0  0  0  0
   19.6803   21.5915   24.5678 H   0  0  0  0  0  0  0  0  0  0  0  0
   18.7768   19.9297   23.5133 C   0  0  0  0  0  0  0  0  0  0  0  0
   18.9089   19.1631   24.2873 H   0  0  0  0  0  0  0  0  0  0  0  0
   17.8099   20.4030   23.7270 H   0  0  0  0  0  0  0  0  0  0  0  0
   18.6581   19.2570   22.1214 C   0  0  0  0  0  0  0  0  0  0  0  0
   17.6722   18.7709   22.0892 H   0  0  0  0  0  0  0  0  0  0  0  0
   19.6965   18.1465   21.8156 C   0  0  0  0  0  0  0  0  0  0  0  0
   19.2392   17.1788   22.0595 H   0  0  0  0  0  0  0  0  0  0  0  0
   19.8780   18.1146   20.7332 H   0  0  0  0  0  0  0  0  0  0  0  0
   21.0612   18.2137   22.5449 C   0  0  0  0  0  0  0  0  0  0  0  0
   20.9469   17.8720   23.5825 H   0  0  0  0  0  0  0  0  0  0  0  0
   21.7328   17.4870   22.0680 H   0  0  0  0  0  0  0  0  0  0  0  0
   18.6881   20.2391   21.0891 O   0  0  0  0  0  0  0  0  0  0  0  0
   18.5698   19.7628   20.2422 H   0  0  0  0  0  0  0  0  0  0  0  0
  1  2  1  0  0  0  0
  1  3  1  0  0  0  0
  1  4  1  0  0  0  0
  4  5  1  0  0  0  0
  4  6  1  0  0  0  0
  4  7  1  0  0  0  0
  7  8  1  0  0  0  0
  7  9  1  0  0  0  0
  7 10  1  0  0  0  0
 10 11  1  0  0  0  0
 10 12  1  0  0  0  0
 10 13  1  0  0  0  0
 13 14  1  0  0  0  0
 13 15  1  0  0  0  0
 15 16  1  0  0  0  0
 15 17  1  0  0  0  0
  1 18  1  0  0  0  0
 15 18  1  0  0  0  0
 18 19  1  0  0  0  0
 18 20  1  0  0  0  0
 13 21  1  0  0  0  0
 21 22  1  0  0  0  0
M  END
> <VConfSearch Rank>
966

> <Conf_Id>
104

> <Delta U+W>
-1.172

> <U+W>
5.252

> <U>
7.482

> <W>
-2.230

> <W(PB)>
-4.220

> <W(SA)>
1.990

> <Valence>
12.309

> <Coulomb>
-7.084

> <VdW>
2.258

> <VdW6>
-9.770

> <VdW12>
12.028

> <Bond>
0.284

> <Angle>
3.491

> <Pdih>
8.535

> <Idih>
0.000

> <Tether>
0.000

$$$$
VeraChem MOL file


 22 22  0  0  0  0  0  0  0  0999 V2000     
   21.4741   19.9295   23.4436 C   0  0  0  0  0  0  0  0  0  0  0  0
   20.9800   20.0749   24.4137 H   0  0  0  0  0  0  0  0  0  0  0  0
   22.5412   20.1264   23.6155 H   0  0  0  0  0  0  0  0  0  0  0  0
   20.9653   20.9555   22.4054 C   0  0  0  0  0  0  0  0  0  0  0  0
   21.4732   21.9137   22.5818 H   0  0  0  0  0  0  0  0  0  0  0  0
   21.2843   20.6458   21.4015 H   0  0  0  0  0  0  0  0  0  0  0  0
   19.4386   21.2215   22.4167 C   0  0  0  0  0  0  0  0  0  0  0  0
   19.1393   21.5722   21.4193 H   0  0  0  0  0  0  0  0  0  0  0  0
   19.2377   22.0632   23.0935 H   0  0  0  0  0  0  0  0  0  0  0  0
   18.5150   20.0482   22.8426 C   0  0  0  0  0  0  0  0  0  0  0  0
   18.5213   19.9656   23.9371 H   0  0  0  0  0  0  0  0  0  0  0  0
   17.4834   20.3166   22.5803 H   0  0  0  0  0  0  0  0  0  0  0  0
   18.8181   18.6579   22.2381 C   0  0  0  0  0  0  0  0  0  0  0  0
   17.8951   18.0643   22.3044 H   0  0  0  0  0  0  0  0  0  0  0  0
   19.9031   17.8860   23.0225 C   0  0  0  0  0  0  0  0  0  0  0  0
   19.5907   17.8097   24.0721 H   0  0  0  0  0  0  0  0  0  0  0  0
   19.9289   16.8550   22.6462 H   0  0  0  0  0  0  0  0  0  0  0  0
   21.3391   18.4636   22.9670 C   0  0  0  0  0  0  0  0  0  0  0  0
   21.9792   17.8347   23.6006 H   0  0  0  0  0  0  0  0  0  0  0  0
   21.7416   18.3639   21.9499 H   0  0  0  0  0  0  0  0  0  0  0  0
   19.1925   18.7780   20.8744 O   0  0  0  0  0  0  0  0  0  0  0  0
   19.9621   19.3811   20.8905 H   0  0  0  0  0  0  0  0  0  0  0  0
  1  2  1  0  0  0  0
  1  3  1  0  0  0  0
  1  4  1  0  0  0  0
  4  5  1  0  0  0  0
  4  6  1  0  0  0  0
  4  7  1  0  0  0  0
  7  8  1  0  0  0  0
  7  9  1  0  0  0  0
  7 10  1  0  0  0  0
 10 11  1  0  0  0  0
 10 12  1  0  0  0  0
 10 13  1  0  0  0  0
 13 14  1  0  0  0  0
 13 15  1  0  0  0  0
 15 16  1  0  0  0  0
 15 17  1  0  0  0  0
  1 18  1  0  0  0  0
 15 18  1  0  0  0  0
 18 19  1  0  0  0  0
 18 20  1  0  0  0  0
 13 21  1  0  0  0  0
 21 22  1  0  0  0  0
M  END
> <VConfSearch Rank>
967

> <Conf_Id>
99

> <Delta U+W>
-3.852

> <U+W>
2.572

> <U>
3.922

> <W>
-1.350

> <W(PB)>
-3.345

> <W(SA)>
1.995

> <Valence>
12.571

> <Coulomb>
-10.581

> <VdW>
1.932

> <VdW6>
-10.483

> <VdW12>
12.415

> <Bond>
0.268

> <Angle>
3.728

> <Pdih>
8.575

> <Idih>
0.000

> <Tether>
0.000

$$$$
VeraChem MOL file


 22 22  0  0  0  0  0  0  0  0999 V2000     
   18.8049   18.6287   23.1649 C   0  0  0  0  0  0  0  0  0  0  0  0
   17.7345   18.3842   23.2057 H   0  0  0  0  0  0  0  0  0  0  0  0
   19.3015   17.8184   23.7153 H   0  0  0  0  0  0  0  0  0  0  0  0
   19.0136   19.9841   23.9017 C   0  0  0  0  0  0  0  0  0  0  0  0
   18.0334   20.3263   24.2616 H   0  0  0  0  0  0  0  0  0  0  0  0
   19.6116   19.8328   24.8103 H   0  0  0  0  0  0  0  0  0  0  0  0
   19.6322   21.1276   23.0577 C   0  0  0  0  0  0  0  0  0  0  0  0
   19.5447   22.0638   23.6257 H   0  0  0  0  0  0  0  0  0  0  0  0
   19.0265   21.2934   22.1582 H   0  0  0  0  0  0  0  0  0  0  0  0
   21.1240   20.9507   22.6603 C   0  0  0  0  0  0  0  0  0  0  0  0
   21.3212   21.5769   21.7807 H   0  0  0  0  0  0  0  0  0  0  0  0
   21.7482   21.3700   23.4606 H   0  0  0  0  0  0  0  0  0  0  0  0
   21.6390   19.5197   22.3684 C   0  0  0  0  0  0  0  0  0  0  0  0
   22.6253   19.6257   21.8942 H   0  0  0  0  0  0  0  0  0  0  0  0
   20.7718   18.6604   21.4156 C   0  0  0  0  0  0  0  0  0  0  0  0
   20.9275   19.0158   20.3889 H   0  0  0  0  0  0  0  0  0  0  0  0
   21.1742   17.6388   21.4331 H   0  0  0  0  0  0  0  0  0  0  0  0
   19.2418   18.5898   21.6781 C   0  0  0  0  0  0  0  0  0  0  0  0
   18.7334   19.3870   21.1218 H   0  0  0  0  0  0  0  0  0  0  0  0
   18.8669   17.6590   21.2311 H   0  0  0  0  0  0  0  0  0  0  0  0
   21.8344   18.8255   23.5904 O   0  0  0  0  0  0  0  0  0  0  0  0
   20.9353   18.7574   23.9699 H   0  0  0  0  0  0  0  0  0  0  0  0
  1  2  1  0  0  0  0
  1  3  1  0  0  0  0
  1  4  1  0  0  0  0
  4  5  1  0  0  0  0
  4  6  1  0  0  0  0
  4  7  1  0  0  0  0
  7  8  1  0  0  0  0
  7  9  1  0  0  0  0
  7 10  1  0  0  0  0
 10 11  1  0  0  0  0
 10 12  1  0  0  0  0
 10 13  1  0  0  0  0
 13 14  1  0  0  0  0
 13 15  1  0  0  0  0
 15 16  1  0  0  0  0
 15 17  1  0  0  0  0
  1 18  1  0  0  0  0
 15 18  1  0  0  0  0
 18 19  1  0  0  0  0
 18 20  1  0  0  0  0
 13 21  1  0  0  0  0
 21 22  1  0  0  0  0
M  END
> <VConfSearch Rank>
968

> <Conf_Id>
98

> <Delta U+W>
0.930

> <U+W>
7.353

> <U>
8.455

> <W>
-1.102

> <W(PB)>
-3.101

> <W(SA)>
2.000

> <Valence>
15.601

> <Coulomb>
-10.573

> <VdW>
3.427

> <VdW6>
-11.360

> <VdW12>
14.787

> <Bond>
0.471

> <Angle>
5.445

> <Pdih>
9.685

> <Idih>
0.000

> <Tether>
0.000

$$$$
VeraChem MOL file


 22 22  0  0  0  0  0  0  0  0999 V2000     
   21.1105   20.3611   23.6901 C   0  0  0  0  0  0  0  0  0  0  0  0
   21.2046   21.1174   22.9001 H   0  0  0  0  0  0  0  0  0  0  0  0
   21.7240   20.7377   24.5198 H   0  0  0  0  0  0  0  0  0  0  0  0
   21.7106   19.0176   23.2032 C   0  0  0  0  0  0  0  0  0  0  0  0
   22.7647   19.1981   22.9518 H   0  0  0  0  0  0  0  0  0  0  0  0
   21.7217   18.2977   24.0328 H   0  0  0  0  0  0  0  0  0  0  0  0
   21.0244   18.3657   21.9708 C   0  0  0  0  0  0  0  0  0  0  0  0
   20.3914   17.5283   22.2916 H   0  0  0  0  0  0  0  0  0  0  0  0
   21.8042   17.9078   21.3470 H   0  0  0  0  0  0  0  0  0  0  0  0
   20.1917   19.3366   21.0923 C   0  0  0  0  0  0  0  0  0  0  0  0
   20.8105   20.2030   20.8276 H   0  0  0  0  0  0  0  0  0  0  0  0
   19.9787   18.8400   20.1361 H   0  0  0  0  0  0  0  0  0  0  0  0
   18.8526   19.8346   21.7109 C   0  0  0  0  0  0  0  0  0  0  0  0
   18.7900   20.9211   21.5535 H   0  0  0  0  0  0  0  0  0  0  0  0
   18.6589   19.5534   23.2221 C   0  0  0  0  0  0  0  0  0  0  0  0
   17.6383   19.8382   23.5087 H   0  0  0  0  0  0  0  0  0  0  0  0
   18.7163   18.4740   23.4070 H   0  0  0  0  0  0  0  0  0  0  0  0
   19.6405   20.2918   24.1661 C   0  0  0  0  0  0  0  0  0  0  0  0
   19.2820   21.3190   24.3187 H   0  0  0  0  0  0  0  0  0  0  0  0
   19.6035   19.8102   25.1527 H   0  0  0  0  0  0  0  0  0  0  0  0
   17.7770   19.2096   21.0197 O   0  0  0  0  0  0  0  0  0  0  0  0
   16.9493   19.5826   21.3885 H   0  0  0  0  0  0  0  0  0  0  0  0
  1  2  1  0  0  0  0
  1  3  1  0  0  0  0
  1  4  1  0  0  0  0
  4  5  1  0  0  0  0
  4  6  1  0  0  0  0
  4  7  1  0  0  0  0
  7  8  1  0  0  0  0
  7  9  1  0  0  0  0
  7 10  1  0  0  0  0
 10 11  1  0  0  0  0
 10 12  1  0  0  0  0
 10 13  1  0  0  0  0
 13 14  1  0  0  0  0
 13 15  1  0  0  0  0
 15 16  1  0  0  0  0
 15 17  1  0  0  0  0
  1 18  1  0  0  0  0
 15 18  1  0  0  0  0
 18 19  1  0  0  0  0
 18 20  1  0  0  0  0
 13 21  1  0  0  0  0
 21 22  1  0  0  0  0
M  END
> <VConfSearch Rank>
969

> <Conf_Id>
141

> <Delta U+W>
0.000

> <U+W>
6.423

> <U>
8.781

> <W>
-2.358

> <W(PB)>
-4.373

> <W(SA)>
2.015

> <Valence>
13.328

> <Coulomb>
-8.387

> <VdW>
3.840

> <VdW6>
-9.744

> <VdW12>
13.584

> <Bond>
0.436

> <Angle>
3.478

> <Pdih>
9.415

> <Idih>
0.000

> <Tether>
0.000

$$$$
VeraChem MOL file


 22 22  0  0  0  0  0  0  0  0999 V2000     
   18.8829   19.0906   23.9136 C   0  0  0  0  0  0  0  0  0  0  0  0
   18.0459   19.4172   23.2816 H   0  0  0  0  0  0  0  0  0  0  0  0
   18.4305   18.6439   24.8095 H   0  0  0  0  0  0  0  0  0  0  0  0
   19.7356   20.2987   24.3707 C   0  0  0  0  0  0  0  0  0  0  0  0
   19.1403   20.9030   25.0688 H   0  0  0  0  0  0  0  0  0  0  0  0
   20.5977   19.9382   24.9483 H   0  0  0  0  0  0  0  0  0  0  0  0
   20.2317   21.2230   23.2349 C   0  0  0  0  0  0  0  0  0  0  0  0
   20.8753   21.9951   23.6783 H   0  0  0  0  0  0  0  0  0  0  0  0
   19.3765   21.7589   22.8009 H   0  0  0  0  0  0  0  0  0  0  0  0
   21.0192   20.5102   22.1085 C   0  0  0  0  0  0  0  0  0  0  0  0
   21.5057   21.2853   21.5019 H   0  0  0  0  0  0  0  0  0  0  0  0
   21.8282   19.8987   22.5287 H   0  0  0  0  0  0  0  0  0  0  0  0
   20.1122   19.6547   21.1958 C   0  0  0  0  0  0  0  0  0  0  0  0
   19.1291   20.1430   21.1323 H   0  0  0  0  0  0  0  0  0  0  0  0
   19.9016   18.2019   21.6800 C   0  0  0  0  0  0  0  0  0  0  0  0
   19.0187   17.8050   21.1625 H   0  0  0  0  0  0  0  0  0  0  0  0
   20.7468   17.5830   21.3506 H   0  0  0  0  0  0  0  0  0  0  0  0
   19.7177   17.9985   23.2048 C   0  0  0  0  0  0  0  0  0  0  0  0
   19.2363   17.0235   23.3615 H   0  0  0  0  0  0  0  0  0  0  0  0
   20.7019   17.9211   23.6865 H   0  0  0  0  0  0  0  0  0  0  0  0
   20.6853   19.6069   19.8949 O   0  0  0  0  0  0  0  0  0  0  0  0
   20.7399   20.5322   19.5763 H   0  0  0  0  0  0  0  0  0  0  0  0
  1  2  1  0  0  0  0
  1  3  1  0  0  0  0
  1  4  1  0  0  0  0
  4  5  1  0  0  0  0
  4  6  1  0  0  0  0
  4  7  1  0  0  0  0
  7  8  1  0  0  0  0
  7  9  1  0  0  0  0
  7 10  1  0  0  0  0
 10 11  1  0  0  0  0
 10 12  1  0  0  0  0
 10 13  1  0  0  0  0
 13 14  1  0  0  0  0
 13 15  1  0  0  0  0
 15 16  1  0  0  0  0
 15 17  1  0  0  0  0
  1 18  1  0  0  0  0
 15 18  1  0  0  0  0
 18 19  1  0  0  0  0
 18 20  1  0  0  0  0
 13 21  1  0  0  0  0
 21 22  1  0  0  0  0
M  END
> <VConfSearch Rank>
970

> <Conf_Id>
144

> <Delta U+W>
-3.291

> <U+W>
3.132

> <U>
5.411

> <W>
-2.279

> <W(PB)>
-4.300

> <W(SA)>
2.021

> <Valence>
11.909

> <Coulomb>
-8.733

> <VdW>
2.236

> <VdW6>
-8.936

> <VdW12>
11.172

> <Bond>
0.223

> <Angle>
2.457

> <Pdih>
9.228

> <Idih>
0.000

> <Tether>
0.000

$$$$
VeraChem MOL file


 22 22  0  0  0  0  0  0  0  0999 V2000     
   21.1332   19.9848   23.8333 C   0  0  0  0  0  0  0  0  0  0  0  0
   22.0638   20.0955   24.4066 H   0  0  0  0  0  0  0  0  0  0  0  0
   20.3738   20.5687   24.3710 H   0  0  0  0  0  0  0  0  0  0  0  0
   20.7607   18.4839   23.8111 C   0  0  0  0  0  0  0  0  0  0  0  0
   21.3287   17.9779   23.0186 H   0  0  0  0  0  0  0  0  0  0  0  0
   21.0933   18.0213   24.7505 H   0  0  0  0  0  0  0  0  0  0  0  0
   19.2517   18.1845   23.6406 C   0  0  0  0  0  0  0  0  0  0  0  0
   18.7621   18.2454   24.6222 H   0  0  0  0  0  0  0  0  0  0  0  0
   19.1443   17.1398   23.3181 H   0  0  0  0  0  0  0  0  0  0  0  0
   18.4773   19.0974   22.6582 C   0  0  0  0  0  0  0  0  0  0  0  0
   17.5452   18.5838   22.3864 H   0  0  0  0  0  0  0  0  0  0  0  0
   18.1711   20.0124   23.1816 H   0  0  0  0  0  0  0  0  0  0  0  0
   19.2499   19.4771   21.3751 C   0  0  0  0  0  0  0  0  0  0  0  0
   19.8915   18.6383   21.0698 H   0  0  0  0  0  0  0  0  0  0  0  0
   20.1097   20.7488   21.5555 C   0  0  0  0  0  0  0  0  0  0  0  0
   20.4225   21.1052   20.5650 H   0  0  0  0  0  0  0  0  0  0  0  0
   19.4938   21.5494   21.9854 H   0  0  0  0  0  0  0  0  0  0  0  0
   21.3795   20.5659   22.4203 C   0  0  0  0  0  0  0  0  0  0  0  0
   22.0965   19.9293   21.8840 H   0  0  0  0  0  0  0  0  0  0  0  0
   21.8677   21.5445   22.5242 H   0  0  0  0  0  0  0  0  0  0  0  0
   18.3055   19.7317   20.3438 O   0  0  0  0  0  0  0  0  0  0  0  0
   17.7542   20.4801   20.6522 H   0  0  0  0  0  0  0  0  0  0  0  0
  1  2  1  0  0  0  0
  1  3  1  0  0  0  0
  1  4  1  0  0  0  0
  4  5  1  0  0  0  0
  4  6  1  0  0  0  0
  4  7  1  0  0  0  0
  7  8  1  0  0  0  0
  7  9  1  0  0  0  0
  7 10  1  0  0  0  0
 10 11  1  0  0  0  0
 10 12  1  0  0  0  0
 10 13  1  0  0  0  0
 13 14  1  0  0  0  0
 13 15  1  0  0  0  0
 15 16  1  0  0  0  0
 15 17  1  0  0  0  0
  1 18  1  0  0  0  0
 15 18  1  0  0  0  0
 18 19  1  0  0  0  0
 18 20  1  0  0  0  0
 13 21  1  0  0  0  0
 21 22  1  0  0  0  0
M  END
> <VConfSearch Rank>
971

> <Conf_Id>
76

> <Delta U+W>
-3.175

> <U+W>
3.248

> <U>
5.336

> <W>
-2.088

> <W(PB)>
-4.098

> <W(SA)>
2.010

> <Valence>
12.390

> <Coulomb>
-9.270

> <VdW>
2.216

> <VdW6>
-8.967

> <VdW12>
11.183

> <Bond>
0.218

> <Angle>
2.426

> <Pdih>
9.745

> <Idih>
0.000

> <Tether>
0.000

$$$$
VeraChem MOL file


 22 22  0  0  0  0  0  0  0  0999 V2000     
   19.0509   18.3656   23.7175 C   0  0  0  0  0  0  0  0  0  0  0  0
   18.9574   17.2800   23.5784 H   0  0  0  0  0  0  0  0  0  0  0  0
   18.4913   18.5980   24.6338 H   0  0  0  0  0  0  0  0  0  0  0  0
   18.3666   19.0678   22.5203 C   0  0  0  0  0  0  0  0  0  0  0  0
   18.5408   18.4854   21.6054 H   0  0  0  0  0  0  0  0  0  0  0  0
   17.2809   19.0381   22.6849 H   0  0  0  0  0  0  0  0  0  0  0  0
   18.7994   20.5340   22.2871 C   0  0  0  0  0  0  0  0  0  0  0  0
   18.9600   21.0536   23.2416 H   0  0  0  0  0  0  0  0  0  0  0  0
   17.9724   21.0587   21.7900 H   0  0  0  0  0  0  0  0  0  0  0  0
   20.0486   20.6534   21.3776 C   0  0  0  0  0  0  0  0  0  0  0  0
   19.8875   20.0664   20.4644 H   0  0  0  0  0  0  0  0  0  0  0  0
   20.1415   21.6957   21.0453 H   0  0  0  0  0  0  0  0  0  0  0  0
   21.3955   20.2328   22.0084 C   0  0  0  0  0  0  0  0  0  0  0  0
   22.1320   20.2026   21.1925 H   0  0  0  0  0  0  0  0  0  0  0  0
   21.4015   18.8364   22.6796 C   0  0  0  0  0  0  0  0  0  0  0  0
   21.0993   18.0724   21.9517 H   0  0  0  0  0  0  0  0  0  0  0  0
   22.4406   18.5999   22.9425 H   0  0  0  0  0  0  0  0  0  0  0  0
   20.5376   18.7180   23.9622 C   0  0  0  0  0  0  0  0  0  0  0  0
   20.9669   17.9393   24.6069 H   0  0  0  0  0  0  0  0  0  0  0  0
   20.6006   19.6458   24.5458 H   0  0  0  0  0  0  0  0  0  0  0  0
   21.8079   21.2264   22.9415 O   0  0  0  0  0  0  0  0  0  0  0  0
   22.6329   20.8973   23.3530 H   0  0  0  0  0  0  0  0  0  0  0  0
  1  2  1  0  0  0  0
  1  3  1  0  0  0  0
  1  4  1  0  0  0  0
  4  5  1  0  0  0  0
  4  6  1  0  0  0  0
  4  7  1  0  0  0  0
  7  8  1  0  0  0  0
  7  9  1  0  0  0  0
  7 10  1  0  0  0  0
 10 11  1  0  0  0  0
 10 12  1  0  0  0  0
 10 13  1  0  0  0  0
 13 14  1  0  0  0  0
 13 15  1  0  0  0  0
 15 16  1  0  0  0  0
 15 17  1  0  0  0  0
  1 18  1  0  0  0  0
 15 18  1  0  0  0  0
 18 19  1  0  0  0  0
 18 20  1  0  0  0  0
 13 21  1  0  0  0  0
 21 22  1  0  0  0  0
M  END
> <VConfSearch Rank>
972

> <Conf_Id>
95

> <Delta U+W>
-2.289

> <U+W>
4.134

> <U>
6.373

> <W>
-2.240

> <W(PB)>
-4.254

> <W(SA)>
2.015

> <Valence>
12.093

> <Coulomb>
-8.058

> <VdW>
2.339

> <VdW6>
-9.683

> <VdW12>
12.022

> <Bond>
0.268

> <Angle>
3.005

> <Pdih>
8.820

> <Idih>
0.000

> <Tether>
0.000

$$$$
VeraChem MOL file


 22 22  0  0  0  0  0  0  0  0999 V2000     
   21.7304   19.4554   23.5912 C   0  0  0  0  0  0  0  0  0  0  0  0
   22.1738   20.1279   24.3383 H   0  0  0  0  0  0  0  0  0  0  0  0
   22.4417   18.6259   23.4777 H   0  0  0  0  0  0  0  0  0  0  0  0
   21.6336   20.2195   22.2492 C   0  0  0  0  0  0  0  0  0  0  0  0
   21.3925   21.2732   22.4446 H   0  0  0  0  0  0  0  0  0  0  0  0
   22.6317   20.2273   21.7904 H   0  0  0  0  0  0  0  0  0  0  0  0
   20.6199   19.6387   21.2360 C   0  0  0  0  0  0  0  0  0  0  0  0
   20.6153   18.5407   21.2698 H   0  0  0  0  0  0  0  0  0  0  0  0
   20.9542   19.9113   20.2259 H   0  0  0  0  0  0  0  0  0  0  0  0
   19.1905   20.2053   21.4293 C   0  0  0  0  0  0  0  0  0  0  0  0
   19.2420   21.3007   21.4768 H   0  0  0  0  0  0  0  0  0  0  0  0
   18.5995   19.9804   20.5321 H   0  0  0  0  0  0  0  0  0  0  0  0
   18.4150   19.6927   22.6645 C   0  0  0  0  0  0  0  0  0  0  0  0
   17.5106   20.3121   22.7511 H   0  0  0  0  0  0  0  0  0  0  0  0
   19.1734   19.8056   24.0108 C   0  0  0  0  0  0  0  0  0  0  0  0
   19.4619   20.8489   24.1918 H   0  0  0  0  0  0  0  0  0  0  0  0
   18.4618   19.5490   24.8062 H   0  0  0  0  0  0  0  0  0  0  0  0
   20.4086   18.8784   24.1517 C   0  0  0  0  0  0  0  0  0  0  0  0
   20.5624   18.6554   25.2161 H   0  0  0  0  0  0  0  0  0  0  0  0
   20.2032   17.9087   23.6794 H   0  0  0  0  0  0  0  0  0  0  0  0
   18.0103   18.3452   22.4422 O   0  0  0  0  0  0  0  0  0  0  0  0
   17.5541   18.3276   21.5763 H   0  0  0  0  0  0  0  0  0  0  0  0
  1  2  1  0  0  0  0
  1  3  1  0  0  0  0
  1  4  1  0  0  0  0
  4  5  1  0  0  0  0
  4  6  1  0  0  0  0
  4  7  1  0  0  0  0
  7  8  1  0  0  0  0
  7  9  1  0  0  0  0
  7 10  1  0  0  0  0
 10 11  1  0  0  0  0
 10 12  1  0  0  0  0
 10 13  1  0  0  0  0
 13 14  1  0  0  0  0
 13 15  1  0  0  0  0
 15 16  1  0  0  0  0
 15 17  1  0  0  0  0
  1 18  1  0  0  0  0
 15 18  1  0  0  0  0
 18 19  1  0  0  0  0
 18 20  1  0  0  0  0
 13 21  1  0  0  0  0
 21 22  1  0  0  0  0
M  END
> <VConfSearch Rank>
973

> <Conf_Id>
41

> <Delta U+W>
-2.114

> <U+W>
4.310

> <U>
6.598

> <W>
-2.289

> <W(PB)>
-4.294

> <W(SA)>
2.005

> <Valence>
12.082

> <Coulomb>
-7.801

> <VdW>
2.317

> <VdW6>
-9.658

> <VdW12>
11.975

> <Bond>
0.267

> <Angle>
3.051

> <Pdih>
8.764

> <Idih>
0.000

> <Tether>
0.000

$$$$
VeraChem MOL file


 22 22  0  0  0  0  0  0  0  0999 V2000     
   21.6248   19.9289   22.2105 C   0  0  0  0  0  0  0  0  0  0  0  0
   22.7092   20.0055   22.0532 H   0  0  0  0  0  0  0  0  0  0  0  0
   21.1528   20.3649   21.3193 H   0  0  0  0  0  0  0  0  0  0  0  0
   21.2700   20.7470   23.4723 C   0  0  0  0  0  0  0  0  0  0  0  0
   21.6992   20.2603   24.3586 H   0  0  0  0  0  0  0  0  0  0  0  0
   21.7575   21.7289   23.4024 H   0  0  0  0  0  0  0  0  0  0  0  0
   19.7577   20.9725   23.6898 C   0  0  0  0  0  0  0  0  0  0  0  0
   19.3718   21.6409   22.9086 H   0  0  0  0  0  0  0  0  0  0  0  0
   19.6294   21.5189   24.6338 H   0  0  0  0  0  0  0  0  0  0  0  0
   18.9002   19.6795   23.7536 C   0  0  0  0  0  0  0  0  0  0  0  0
   19.3303   18.9777   24.4794 H   0  0  0  0  0  0  0  0  0  0  0  0
   17.9157   19.9534   24.1538 H   0  0  0  0  0  0  0  0  0  0  0  0
   18.6591   18.9575   22.4028 C   0  0  0  0  0  0  0  0  0  0  0  0
   17.8053   18.2813   22.5547 H   0  0  0  0  0  0  0  0  0  0  0  0
   19.8248   18.0716   21.8914 C   0  0  0  0  0  0  0  0  0  0  0  0
   19.6291   17.0387   22.2076 H   0  0  0  0  0  0  0  0  0  0  0  0
   19.8002   18.0464   20.7940 H   0  0  0  0  0  0  0  0  0  0  0  0
   21.2602   18.4340   22.3464 C   0  0  0  0  0  0  0  0  0  0  0  0
   21.4171   18.1059   23.3828 H   0  0  0  0  0  0  0  0  0  0  0  0
   21.9629   17.8448   21.7416 H   0  0  0  0  0  0  0  0  0  0  0  0
   18.2919   19.8956   21.3949 O   0  0  0  0  0  0  0  0  0  0  0  0
   18.1146   19.3815   20.5812 H   0  0  0  0  0  0  0  0  0  0  0  0
  1  2  1  0  0  0  0
  1  3  1  0  0  0  0
  1  4  1  0  0  0  0
  4  5  1  0  0  0  0
  4  6  1  0  0  0  0
  4  7  1  0  0  0  0
  7  8  1  0  0  0  0
  7  9  1  0  0  0  0
  7 10  1  0  0  0  0
 10 11  1  0  0  0  0
 10 12  1  0  0  0  0
 10 13  1  0  0  0  0
 13 14  1  0  0  0  0
 13 15  1  0  0  0  0
 15 16  1  0  0  0  0
 15 17  1  0  0  0  0
  1 18  1  0  0  0  0
 15 18  1  0  0  0  0
 18 19  1  0  0  0  0
 18 20  1  0  0  0  0
 13 21  1  0  0  0  0
 21 22  1  0  0  0  0
M  END
> <VConfSearch Rank>
974

> <Conf_Id>
104

> <Delta U+W>
-1.172

> <U+W>
5.252

> <U>
7.482

> <W>
-2.230

> <W(PB)>
-4.220

> <W(SA)>
1.990

> <Valence>
12.309

> <Coulomb>
-7.084

> <VdW>
2.258

> <VdW6>
-9.770

> <VdW12>
12.028

> <Bond>
0.284

> <Angle>
3.491

> <Pdih>
8.535

> <Idih>
0.000

> <Tether>
0.000

$$$$
VeraChem MOL file


 22 22  0  0  0  0  0  0  0  0999 V2000     
   20.9852   18.2303   22.7901 C   0  0  0  0  0  0  0  0  0  0  0  0
   21.2192   18.2166   21.7170 H   0  0  0  0  0  0  0  0  0  0  0  0
   21.4792   17.3474   23.2183 H   0  0  0  0  0  0  0  0  0  0  0  0
   19.4646   18.0819   23.0255 C   0  0  0  0  0  0  0  0  0  0  0  0
   19.1965   17.0211   22.9249 H   0  0  0  0  0  0  0  0  0  0  0  0
   19.2315   18.3360   24.0678 H   0  0  0  0  0  0  0  0  0  0  0  0
   18.5546   18.8915   22.0673 C   0  0  0  0  0  0  0  0  0  0  0  0
   17.5968   19.0783   22.5724 H   0  0  0  0  0  0  0  0  0  0  0  0
   18.3096   18.2586   21.2034 H   0  0  0  0  0  0  0  0  0  0  0  0
   19.1124   20.2335   21.5206 C   0  0  0  0  0  0  0  0  0  0  0  0
   19.8110   20.0241   20.7002 H   0  0  0  0  0  0  0  0  0  0  0  0
   18.2819   20.7824   21.0581 H   0  0  0  0  0  0  0  0  0  0  0  0
   19.8044   21.1739   22.5340 C   0  0  0  0  0  0  0  0  0  0  0  0
   19.7769   22.1881   22.1105 H   0  0  0  0  0  0  0  0  0  0  0  0
   21.2928   20.8237   22.7582 C   0  0  0  0  0  0  0  0  0  0  0  0
   21.8055   20.8299   21.7876 H   0  0  0  0  0  0  0  0  0  0  0  0
   21.7512   21.6343   23.3397 H   0  0  0  0  0  0  0  0  0  0  0  0
   21.5873   19.4814   23.4727 C   0  0  0  0  0  0  0  0  0  0  0  0
   22.6778   19.3576   23.5194 H   0  0  0  0  0  0  0  0  0  0  0  0
   21.2515   19.5340   24.5172 H   0  0  0  0  0  0  0  0  0  0  0  0
   19.1094   21.1715   23.7714 O   0  0  0  0  0  0  0  0  0  0  0  0
   19.1044   20.2314   24.0404 H   0  0  0  0  0  0  0  0  0  0  0  0
  1  2  1  0  0  0  0
  1  3  1  0  0  0  0
  1  4  1  0  0  0  0
  4  5  1  0  0  0  0
  4  6  1  0  0  0  0
  4  7  1  0  0  0  0
  7  8  1  0  0  0  0
  7  9  1  0  0  0  0
  7 10  1  0  0  0  0
 10 11  1  0  0  0  0
 10 12  1  0  0  0  0
 10 13  1  0  0  0  0
 13 14  1  0  0  0  0
 13 15  1  0  0  0  0
 15 16  1  0  0  0  0
 15 17  1  0  0  0  0
  1 18  1  0  0  0  0
 15 18  1  0  0  0  0
 18 19  1  0  0  0  0
 18 20  1  0  0  0  0
 13 21  1  0  0  0  0
 21 22  1  0  0  0  0
M  END
> <VConfSearch Rank>
975

> <Conf_Id>
99

> <Delta U+W>
-3.852

> <U+W>
2.572

> <U>
3.922

> <W>
-1.350

> <W(PB)>
-3.345

> <W(SA)>
1.995

> <Valence>
12.571

> <Coulomb>
-10.581

> <VdW>
1.932

> <VdW6>
-10.483

> <VdW12>
12.415

> <Bond>
0.268

> <Angle>
3.728

> <Pdih>
8.575

> <Idih>
0.000

> <Tether>
0.000

$$$$
VeraChem MOL file


 22 22  0  0  0  0  0  0  0  0999 V2000     
   21.0048   18.2143   22.5542 C   0  0  0  0  0  0  0  0  0  0  0  0
   21.3672   17.3364   22.0016 H   0  0  0  0  0  0  0  0  0  0  0  0
   21.5322   18.1803   23.5169 H   0  0  0  0  0  0  0  0  0  0  0  0
   19.4735   18.0406   22.7750 C   0  0  0  0  0  0  0  0  0  0  0  0
   19.1731   17.0875   22.3182 H   0  0  0  0  0  0  0  0  0  0  0  0
   19.2565   17.9224   23.8451 H   0  0  0  0  0  0  0  0  0  0  0  0
   18.5716   19.1533   22.1824 C   0  0  0  0  0  0  0  0  0  0  0  0
   17.5271   18.8169   22.2343 H   0  0  0  0  0  0  0  0  0  0  0  0
   18.7733   19.2612   21.1094 H   0  0  0  0  0  0  0  0  0  0  0  0
   18.6586   20.5418   22.8748 C   0  0  0  0  0  0  0  0  0  0  0  0
   18.3119   21.3022   22.1632 H   0  0  0  0  0  0  0  0  0  0  0  0
   17.9337   20.5641   23.6994 H   0  0  0  0  0  0  0  0  0  0  0  0
   20.0268   20.9912   23.4443 C   0  0  0  0  0  0  0  0  0  0  0  0
   19.9391   22.0619   23.6784 H   0  0  0  0  0  0  0  0  0  0  0  0
   21.2458   20.8351   22.5021 C   0  0  0  0  0  0  0  0  0  0  0  0
   21.2050   21.6303   21.7466 H   0  0  0  0  0  0  0  0  0  0  0  0
   22.1486   21.0417   23.0922 H   0  0  0  0  0  0  0  0  0  0  0  0
   21.4386   19.4785   21.7691 C   0  0  0  0  0  0  0  0  0  0  0  0
   20.9269   19.5057   20.7990 H   0  0  0  0  0  0  0  0  0  0  0  0
   22.5033   19.3813   21.5169 H   0  0  0  0  0  0  0  0  0  0  0  0
   20.2794   20.3148   24.6657 O   0  0  0  0  0  0  0  0  0  0  0  0
   20.3486   19.3745   24.4053 H   0  0  0  0  0  0  0  0  0  0  0  0
  1  2  1  0  0  0  0
  1  3  1  0  0  0  0
  1  4  1  0  0  0  0
  4  5  1  0  0  0  0
  4  6  1  0  0  0  0
  4  7  1  0  0  0  0
  7  8  1  0  0  0  0
  7  9  1  0  0  0  0
  7 10  1  0  0  0  0
 10 11  1  0  0  0  0
 10 12  1  0  0  0  0
 10 13  1  0  0  0  0
 13 14  1  0  0  0  0
 13 15  1  0  0  0  0
 15 16  1  0  0  0  0
 15 17  1  0  0  0  0
  1 18  1  0  0  0  0
 15 18  1  0  0  0  0
 18 19  1  0  0  0  0
 18 20  1  0  0  0  0
 13 21  1  0  0  0  0
 21 22  1  0  0  0  0
M  END
> <VConfSearch Rank>
976

> <Conf_Id>
98

> <Delta U+W>
0.930

> <U+W>
7.353

> <U>
8.455

> <W>
-1.102

> <W(PB)>
-3.101

> <W(SA)>
2.000

> <Valence>
15.601

> <Coulomb>
-10.573

> <VdW>
3.427

> <VdW6>
-11.360

> <VdW12>
14.787

> <Bond>
0.471

> <Angle>
5.445

> <Pdih>
9.685

> <Idih>
0.000

> <Tether>
0.000

$$$$
VeraChem MOL file


 22 22  0  0  0  0  0  0  0  0999 V2000     
   21.5963   19.9835   22.1513 C   0  0  0  0  0  0  0  0  0  0  0  0
   21.2279   19.9240   21.1190 H   0  0  0  0  0  0  0  0  0  0  0  0
   22.6361   20.3268   22.0636 H   0  0  0  0  0  0  0  0  0  0  0  0
   21.5952   18.5714   22.7901 C   0  0  0  0  0  0  0  0  0  0  0  0
   22.2418   17.9301   22.1757 H   0  0  0  0  0  0  0  0  0  0  0  0
   22.0722   18.6147   23.7787 H   0  0  0  0  0  0  0  0  0  0  0  0
   20.2107   17.8781   22.9211 C   0  0  0  0  0  0  0  0  0  0  0  0
   19.8601   17.9312   23.9600 H   0  0  0  0  0  0  0  0  0  0  0  0
   20.3444   16.8061   22.7223 H   0  0  0  0  0  0  0  0  0  0  0  0
   19.1095   18.4256   21.9749 C   0  0  0  0  0  0  0  0  0  0  0  0
   19.4890   18.4298   20.9455 H   0  0  0  0  0  0  0  0  0  0  0  0
   18.2763   17.7101   21.9650 H   0  0  0  0  0  0  0  0  0  0  0  0
   18.5561   19.8389   22.3215 C   0  0  0  0  0  0  0  0  0  0  0  0
   18.5154   20.4243   21.3916 H   0  0  0  0  0  0  0  0  0  0  0  0
   19.3674   20.6464   23.3655 C   0  0  0  0  0  0  0  0  0  0  0  0
   18.8156   21.5624   23.6134 H   0  0  0  0  0  0  0  0  0  0  0  0
   19.4228   20.0839   24.3053 H   0  0  0  0  0  0  0  0  0  0  0  0
   20.7946   21.0568   22.9246 C   0  0  0  0  0  0  0  0  0  0  0  0
   20.7276   21.9536   22.2937 H   0  0  0  0  0  0  0  0  0  0  0  0
   21.3616   21.3573   23.8161 H   0  0  0  0  0  0  0  0  0  0  0  0
   17.2344   19.6934   22.8286 O   0  0  0  0  0  0  0  0  0  0  0  0
   16.8900   20.5976   22.9837 H   0  0  0  0  0  0  0  0  0  0  0  0
  1  2  1  0  0  0  0
  1  3  1  0  0  0  0
  1  4  1  0  0  0  0
  4  5  1  0  0  0  0
  4  6  1  0  0  0  0
  4  7  1  0  0  0  0
  7  8  1  0  0  0  0
  7  9  1  0  0  0  0
  7 10  1  0  0  0  0
 10 11  1  0  0  0  0
 10 12  1  0  0  0  0
 10 13  1  0  0  0  0
 13 14  1  0  0  0  0
 13 15  1  0  0  0  0
 15 16  1  0  0  0  0
 15 17  1  0  0  0  0
  1 18  1  0  0  0  0
 15 18  1  0  0  0  0
 18 19  1  0  0  0  0
 18 20  1  0  0  0  0
 13 21  1  0  0  0  0
 21 22  1  0  0  0  0
M  END
> <VConfSearch Rank>
977

> <Conf_Id>
141

> <Delta U+W>
0.000

> <U+W>
6.423

> <U>
8.781

> <W>
-2.358

> <W(PB)>
-4.373

> <W(SA)>
2.015

> <Valence>
13.328

> <Coulomb>
-8.387

> <VdW>
3.840

> <VdW6>
-9.744

> <VdW12>
13.584

> <Bond>
0.436

> <Angle>
3.478

> <Pdih>
9.415

> <Idih>
0.000

> <Tether>
0.000

$$$$
VeraChem MOL file


 22 22  0  0  0  0  0  0  0  0999 V2000     
   19.5737   21.1935   23.2785 C   0  0  0  0  0  0  0  0  0  0  0  0
   18.6903   21.1941   22.6256 H   0  0  0  0  0  0  0  0  0  0  0  0
   19.5227   22.1247   23.8591 H   0  0  0  0  0  0  0  0  0  0  0  0
   20.8777   21.2302   22.4455 C   0  0  0  0  0  0  0  0  0  0  0  0
   20.9524   22.2107   21.9556 H   0  0  0  0  0  0  0  0  0  0  0  0
   21.7425   21.1670   23.1200 H   0  0  0  0  0  0  0  0  0  0  0  0
   20.9964   20.1376   21.3581 C   0  0  0  0  0  0  0  0  0  0  0  0
   21.9852   20.2282   20.8882 H   0  0  0  0  0  0  0  0  0  0  0  0
   20.2667   20.3354   20.5610 H   0  0  0  0  0  0  0  0  0  0  0  0
   20.8226   18.6860   21.8678 C   0  0  0  0  0  0  0  0  0  0  0  0
   21.1540   18.0113   21.0675 H   0  0  0  0  0  0  0  0  0  0  0  0
   21.4839   18.4939   22.7226 H   0  0  0  0  0  0  0  0  0  0  0  0
   19.3581   18.3525   22.2307 C   0  0  0  0  0  0  0  0  0  0  0  0
   18.6991   18.9187   21.5569 H   0  0  0  0  0  0  0  0  0  0  0  0
   18.9655   18.6877   23.6877 C   0  0  0  0  0  0  0  0  0  0  0  0
   17.8693   18.7186   23.7366 H   0  0  0  0  0  0  0  0  0  0  0  0
   19.2728   17.8638   24.3456 H   0  0  0  0  0  0  0  0  0  0  0  0
   19.5268   20.0085   24.2713 C   0  0  0  0  0  0  0  0  0  0  0  0
   18.9064   20.2894   25.1332 H   0  0  0  0  0  0  0  0  0  0  0  0
   20.5321   19.8326   24.6776 H   0  0  0  0  0  0  0  0  0  0  0  0
   19.1398   16.9622   22.0241 O   0  0  0  0  0  0  0  0  0  0  0  0
   19.3212   16.7856   21.0773 H   0  0  0  0  0  0  0  0  0  0  0  0
  1  2  1  0  0  0  0
  1  3  1  0  0  0  0
  1  4  1  0  0  0  0
  4  5  1  0  0  0  0
  4  6  1  0  0  0  0
  4  7  1  0  0  0  0
  7  8  1  0  0  0  0
  7  9  1  0  0  0  0
  7 10  1  0  0  0  0
 10 11  1  0  0  0  0
 10 12  1  0  0  0  0
 10 13  1  0  0  0  0
 13 14  1  0  0  0  0
 13 15  1  0  0  0  0
 15 16  1  0  0  0  0
 15 17  1  0  0  0  0
  1 18  1  0  0  0  0
 15 18  1  0  0  0  0
 18 19  1  0  0  0  0
 18 20  1  0  0  0  0
 13 21  1  0  0  0  0
 21 22  1  0  0  0  0
M  END
> <VConfSearch Rank>
978

> <Conf_Id>
144

> <Delta U+W>
-3.291

> <U+W>
3.132

> <U>
5.411

> <W>
-2.279

> <W(PB)>
-4.300

> <W(SA)>
2.021

> <Valence>
11.909

> <Coulomb>
-8.733

> <VdW>
2.236

> <VdW6>
-8.936

> <VdW12>
11.172

> <Bond>
0.223

> <Angle>
2.457

> <Pdih>
9.228

> <Idih>
0.000

> <Tether>
0.000

$$$$
VeraChem MOL file


 22 22  0  0  0  0  0  0  0  0999 V2000     
   18.6471   18.4870   23.0956 C   0  0  0  0  0  0  0  0  0  0  0  0
   18.0461   17.6119   23.3784 H   0  0  0  0  0  0  0  0  0  0  0  0
   17.9505   19.3357   23.0607 H   0  0  0  0  0  0  0  0  0  0  0  0
   19.2577   18.2173   21.7004 C   0  0  0  0  0  0  0  0  0  0  0  0
   20.1654   17.6084   21.8101 H   0  0  0  0  0  0  0  0  0  0  0  0
   18.5589   17.5992   21.1202 H   0  0  0  0  0  0  0  0  0  0  0  0
   19.5784   19.4827   20.8686 C   0  0  0  0  0  0  0  0  0  0  0  0
   18.6653   19.8139   20.3553 H   0  0  0  0  0  0  0  0  0  0  0  0
   20.2817   19.2002   20.0732 H   0  0  0  0  0  0  0  0  0  0  0  0
   20.1575   20.6887   21.6486 C   0  0  0  0  0  0  0  0  0  0  0  0
   20.6358   21.3598   20.9225 H   0  0  0  0  0  0  0  0  0  0  0  0
   19.3321   21.2643   22.0871 H   0  0  0  0  0  0  0  0  0  0  0  0
   21.1700   20.3222   22.7568 C   0  0  0  0  0  0  0  0  0  0  0  0
   21.7542   19.4444   22.4462 H   0  0  0  0  0  0  0  0  0  0  0  0
   20.4862   20.0367   24.1133 C   0  0  0  0  0  0  0  0  0  0  0  0
   21.2525   20.0357   24.9000 H   0  0  0  0  0  0  0  0  0  0  0  0
   19.8010   20.8586   24.3583 H   0  0  0  0  0  0  0  0  0  0  0  0
   19.7186   18.6957   24.1925 C   0  0  0  0  0  0  0  0  0  0  0  0
   20.4356   17.8638   24.1652 H   0  0  0  0  0  0  0  0  0  0  0  0
   19.2302   18.6375   25.1748 H   0  0  0  0  0  0  0  0  0  0  0  0
   22.0532   21.4213   22.9363 O   0  0  0  0  0  0  0  0  0  0  0  0
   21.4980   22.1805   23.2095 H   0  0  0  0  0  0  0  0  0  0  0  0
  1  2  1  0  0  0  0
  1  3  1  0  0  0  0
  1  4  1  0  0  0  0
  4  5  1  0  0  0  0
  4  6  1  0  0  0  0
  4  7  1  0  0  0  0
  7  8  1  0  0  0  0
  7  9  1  0  0  0  0
  7 10  1  0  0  0  0
 10 11  1  0  0  0  0
 10 12  1  0  0  0  0
 10 13  1  0  0  0  0
 13 14  1  0  0  0  0
 13 15  1  0  0  0  0
 15 16  1  0  0  0  0
 15 17  1  0  0  0  0
  1 18  1  0  0  0  0
 15 18  1  0  0  0  0
 18 19  1  0  0  0  0
 18 20  1  0  0  0  0
 13 21  1  0  0  0  0
 21 22  1  0  0  0  0
M  END
> <VConfSearch Rank>
979

> <Conf_Id>
76

> <Delta U+W>
-3.175

> <U+W>
3.248

> <U>
5.336

> <W>
-2.088

> <W(PB)>
-4.098

> <W(SA)>
2.010

> <Valence>
12.390

> <Coulomb>
-9.270

> <VdW>
2.216

> <VdW6>
-8.967

> <VdW12>
11.183

> <Bond>
0.218

> <Angle>
2.426

> <Pdih>
9.745

> <Idih>
0.000

> <Tether>
0.000

$$$$
VeraChem MOL file


 22 22  0  0  0  0  0  0  0  0999 V2000     
   18.4317   19.0008   23.4139 C   0  0  0  0  0  0  0  0  0  0  0  0
   18.1505   17.9824   23.7149 H   0  0  0  0  0  0  0  0  0  0  0  0
   17.5866   19.6408   23.7020 H   0  0  0  0  0  0  0  0  0  0  0  0
   18.5784   19.0271   21.8736 C   0  0  0  0  0  0  0  0  0  0  0  0
   19.0091   18.0768   21.5301 H   0  0  0  0  0  0  0  0  0  0  0  0
   17.5710   19.0676   21.4374 H   0  0  0  0  0  0  0  0  0  0  0  0
   19.4147   20.2023   21.3160 C   0  0  0  0  0  0  0  0  0  0  0  0
   19.2350   21.1210   21.8910 H   0  0  0  0  0  0  0  0  0  0  0  0
   19.0711   20.4106   20.2938 H   0  0  0  0  0  0  0  0  0  0  0  0
   20.9296   19.8819   21.2484 C   0  0  0  0  0  0  0  0  0  0  0  0
   21.0730   18.9242   20.7319 H   0  0  0  0  0  0  0  0  0  0  0  0
   21.4188   20.6341   20.6158 H   0  0  0  0  0  0  0  0  0  0  0  0
   21.6789   19.8358   22.5995 C   0  0  0  0  0  0  0  0  0  0  0  0
   22.6774   19.4234   22.3943 H   0  0  0  0  0  0  0  0  0  0  0  0
   21.0294   18.9391   23.6832 C   0  0  0  0  0  0  0  0  0  0  0  0
   20.9233   17.9145   23.3038 H   0  0  0  0  0  0  0  0  0  0  0  0
   21.7331   18.8721   24.5229 H   0  0  0  0  0  0  0  0  0  0  0  0
   19.6691   19.4457   24.2294 C   0  0  0  0  0  0  0  0  0  0  0  0
   19.5435   19.0818   25.2581 H   0  0  0  0  0  0  0  0  0  0  0  0
   19.6790   20.5408   24.3078 H   0  0  0  0  0  0  0  0  0  0  0  0
   21.8396   21.1619   23.0931 O   0  0  0  0  0  0  0  0  0  0  0  0
   22.2694   21.0832   23.9691 H   0  0  0  0  0  0  0  0  0  0  0  0
  1  2  1  0  0  0  0
  1  3  1  0  0  0  0
  1  4  1  0  0  0  0
  4  5  1  0  0  0  0
  4  6  1  0  0  0  0
  4  7  1  0  0  0  0
  7  8  1  0  0  0  0
  7  9  1  0  0  0  0
  7 10  1  0  0  0  0
 10 11  1  0  0  0  0
 10 12  1  0  0  0  0
 10 13  1  0  0  0  0
 13 14  1  0  0  0  0
 13 15  1  0  0  0  0
 15 16  1  0  0  0  0
 15 17  1  0  0  0  0
  1 18  1  0  0  0  0
 15 18  1  0  0  0  0
 18 19  1  0  0  0  0
 18 20  1  0  0  0  0
 13 21  1  0  0  0  0
 21 22  1  0  0  0  0
M  END
> <VConfSearch Rank>
980

> <Conf_Id>
95

> <Delta U+W>
-2.289

> <U+W>
4.134

> <U>
6.373

> <W>
-2.240

> <W(PB)>
-4.254

> <W(SA)>
2.015

> <Valence>
12.093

> <Coulomb>
-8.058

> <VdW>
2.339

> <VdW6>
-9.683

> <VdW12>
12.022

> <Bond>
0.268

> <Angle>
3.005

> <Pdih>
8.820

> <Idih>
0.000

> <Tether>
0.000

$$$$
VeraChem MOL file


 22 22  0  0  0  0  0  0  0  0999 V2000     
   20.0160   20.0961   24.5600 C   0  0  0  0  0  0  0  0  0  0  0  0
   20.8698   20.3231   25.2129 H   0  0  0  0  0  0  0  0  0  0  0  0
   19.1209   20.2311   25.1823 H   0  0  0  0  0  0  0  0  0  0  0  0
   20.1122   18.6110   24.1361 C   0  0  0  0  0  0  0  0  0  0  0  0
   21.1670   18.3379   23.9969 H   0  0  0  0  0  0  0  0  0  0  0  0
   19.7580   17.9954   24.9742 H   0  0  0  0  0  0  0  0  0  0  0  0
   19.3120   18.2387   22.8663 C   0  0  0  0  0  0  0  0  0  0  0  0
   18.3584   18.7828   22.8288 H   0  0  0  0  0  0  0  0  0  0  0  0
   19.0529   17.1731   22.9276 H   0  0  0  0  0  0  0  0  0  0  0  0
   20.1242   18.4530   21.5640 C   0  0  0  0  0  0  0  0  0  0  0  0
   21.1040   17.9693   21.6684 H   0  0  0  0  0  0  0  0  0  0  0  0
   19.6224   17.9203   20.7458 H   0  0  0  0  0  0  0  0  0  0  0  0
   20.3409   19.9205   21.1291 C   0  0  0  0  0  0  0  0  0  0  0  0
   21.0693   19.9034   20.3055 H   0  0  0  0  0  0  0  0  0  0  0  0
   20.9159   20.8532   22.2245 C   0  0  0  0  0  0  0  0  0  0  0  0
   21.8712   20.4562   22.5909 H   0  0  0  0  0  0  0  0  0  0  0  0
   21.1539   21.8105   21.7431 H   0  0  0  0  0  0  0  0  0  0  0  0
   19.9640   21.1365   23.4158 C   0  0  0  0  0  0  0  0  0  0  0  0
   20.2136   22.1180   23.8407 H   0  0  0  0  0  0  0  0  0  0  0  0
   18.9316   21.2315   23.0541 H   0  0  0  0  0  0  0  0  0  0  0  0
   19.1172   20.4503   20.6282 O   0  0  0  0  0  0  0  0  0  0  0  0
   18.7909   19.8178   19.9561 H   0  0  0  0  0  0  0  0  0  0  0  0
  1  2  1  0  0  0  0
  1  3  1  0  0  0  0
  1  4  1  0  0  0  0
  4  5  1  0  0  0  0
  4  6  1  0  0  0  0
  4  7  1  0  0  0  0
  7  8  1  0  0  0  0
  7  9  1  0  0  0  0
  7 10  1  0  0  0  0
 10 11  1  0  0  0  0
 10 12  1  0  0  0  0
 10 13  1  0  0  0  0
 13 14  1  0  0  0  0
 13 15  1  0  0  0  0
 15 16  1  0  0  0  0
 15 17  1  0  0  0  0
  1 18  1  0  0  0  0
 15 18  1  0  0  0  0
 18 19  1  0  0  0  0
 18 20  1  0  0  0  0
 13 21  1  0  0  0  0
 21 22  1  0  0  0  0
M  END
> <VConfSearch Rank>
981

> <Conf_Id>
41

> <Delta U+W>
-2.114

> <U+W>
4.310

> <U>
6.598

> <W>
-2.289

> <W(PB)>
-4.294

> <W(SA)>
2.005

> <Valence>
12.082

> <Coulomb>
-7.801

> <VdW>
2.317

> <VdW6>
-9.658

> <VdW12>
11.975

> <Bond>
0.267

> <Angle>
3.051

> <Pdih>
8.764

> <Idih>
0.000

> <Tether>
0.000

$$$$
VeraChem MOL file


 22 22  0  0  0  0  0  0  0  0999 V2000     
   19.9896   17.8830   22.8837 C   0  0  0  0  0  0  0  0  0  0  0  0
   19.6690   16.8367   22.9790 H   0  0  0  0  0  0  0  0  0  0  0  0
   21.0460   17.8553   22.5829 H   0  0  0  0  0  0  0  0  0  0  0  0
   19.8326   18.5545   24.2665 C   0  0  0  0  0  0  0  0  0  0  0  0
   18.7665   18.6283   24.5203 H   0  0  0  0  0  0  0  0  0  0  0  0
   20.2786   17.8994   25.0271 H   0  0  0  0  0  0  0  0  0  0  0  0
   20.4880   19.9480   24.3841 C   0  0  0  0  0  0  0  0  0  0  0  0
   21.5802   19.8430   24.3406 H   0  0  0  0  0  0  0  0  0  0  0  0
   20.2701   20.3408   25.3862 H   0  0  0  0  0  0  0  0  0  0  0  0
   20.0127   20.9912   23.3367 C   0  0  0  0  0  0  0  0  0  0  0  0
   18.9165   21.0407   23.3250 H   0  0  0  0  0  0  0  0  0  0  0  0
   20.3503   21.9791   23.6752 H   0  0  0  0  0  0  0  0  0  0  0  0
   20.5460   20.7962   21.8939 C   0  0  0  0  0  0  0  0  0  0  0  0
   20.3963   21.7517   21.3706 H   0  0  0  0  0  0  0  0  0  0  0  0
   19.8207   19.7209   21.0438 C   0  0  0  0  0  0  0  0  0  0  0  0
   19.0561   20.2261   20.4394 H   0  0  0  0  0  0  0  0  0  0  0  0
   20.5295   19.3001   20.3186 H   0  0  0  0  0  0  0  0  0  0  0  0
   19.1277   18.5555   21.7925 C   0  0  0  0  0  0  0  0  0  0  0  0
   18.1808   18.9024   22.2279 H   0  0  0  0  0  0  0  0  0  0  0  0
   18.8489   17.7971   21.0483 H   0  0  0  0  0  0  0  0  0  0  0  0
   21.9458   20.5294   21.9119 O   0  0  0  0  0  0  0  0  0  0  0  0
   22.2317   20.4560   20.9787 H   0  0  0  0  0  0  0  0  0  0  0  0
  1  2  1  0  0  0  0
  1  3  1  0  0  0  0
  1  4  1  0  0  0  0
  4  5  1  0  0  0  0
  4  6  1  0  0  0  0
  4  7  1  0  0  0  0
  7  8  1  0  0  0  0
  7  9  1  0  0  0  0
  7 10  1  0  0  0  0
 10 11  1  0  0  0  0
 10 12  1  0  0  0  0
 10 13  1  0  0  0  0
 13 14  1  0  0  0  0
 13 15  1  0  0  0  0
 15 16  1  0  0  0  0
 15 17  1  0  0  0  0
  1 18  1  0  0  0  0
 15 18  1  0  0  0  0
 18 19  1  0  0  0  0
 18 20  1  0  0  0  0
 13 21  1  0  0  0  0
 21 22  1  0  0  0  0
M  END
> <VConfSearch Rank>
982

> <Conf_Id>
104

> <Delta U+W>
-1.172

> <U+W>
5.252

> <U>
7.482

> <W>
-2.230

> <W(PB)>
-4.220

> <W(SA)>
1.990

> <Valence>
12.309

> <Coulomb>
-7.084

> <VdW>
2.258

> <VdW6>
-9.770

> <VdW12>
12.028

> <Bond>
0.284

> <Angle>
3.491

> <Pdih>
8.535

> <Idih>
0.000

> <Tether>
0.000

$$$$
VeraChem MOL file


 22 22  0  0  0  0  0  0  0  0999 V2000     
   19.1815   20.1957   23.9170 C   0  0  0  0  0  0  0  0  0  0  0  0
   18.9140   21.1081   23.3669 H   0  0  0  0  0  0  0  0  0  0  0  0
   18.7238   20.2968   24.9106 H   0  0  0  0  0  0  0  0  0  0  0  0
   20.7120   20.0956   24.1095 C   0  0  0  0  0  0  0  0  0  0  0  0
   21.0037   20.7492   24.9432 H   0  0  0  0  0  0  0  0  0  0  0  0
   20.9714   19.0813   24.4398 H   0  0  0  0  0  0  0  0  0  0  0  0
   21.5704   20.4875   22.8802 C   0  0  0  0  0  0  0  0  0  0  0  0
   22.5387   19.9733   22.9540 H   0  0  0  0  0  0  0  0  0  0  0  0
   21.8040   21.5589   22.9468 H   0  0  0  0  0  0  0  0  0  0  0  0
   20.9617   20.2281   21.4754 C   0  0  0  0  0  0  0  0  0  0  0  0
   20.2430   21.0247   21.2431 H   0  0  0  0  0  0  0  0  0  0  0  0
   21.7630   20.3383   20.7333 H   0  0  0  0  0  0  0  0  0  0  0  0
   20.2785   18.8605   21.2452 C   0  0  0  0  0  0  0  0  0  0  0  0
   20.2669   18.6792   20.1609 H   0  0  0  0  0  0  0  0  0  0  0  0
   18.8073   18.8375   21.7178 C   0  0  0  0  0  0  0  0  0  0  0  0
   18.2641   19.6489   21.2160 H   0  0  0  0  0  0  0  0  0  0  0  0
   18.3471   17.9077   21.3587 H   0  0  0  0  0  0  0  0  0  0  0  0
   18.5697   18.9437   23.2446 C   0  0  0  0  0  0  0  0  0  0  0  0
   17.4847   18.9557   23.4160 H   0  0  0  0  0  0  0  0  0  0  0  0
   18.9369   18.0362   23.7426 H   0  0  0  0  0  0  0  0  0  0  0  0
   21.0121   17.8238   21.8786 O   0  0  0  0  0  0  0  0  0  0  0  0
   21.0495   18.0969   22.8168 H   0  0  0  0  0  0  0  0  0  0  0  0
  1  2  1  0  0  0  0
  1  3  1  0  0  0  0
  1  4  1  0  0  0  0
  4  5  1  0  0  0  0
  4  6  1  0  0  0  0
  4  7  1  0  0  0  0
  7  8  1  0  0  0  0
  7  9  1  0  0  0  0
  7 10  1  0  0  0  0
 10 11  1  0  0  0  0
 10 12  1  0  0  0  0
 10 13  1  0  0  0  0
 13 14  1  0  0  0  0
 13 15  1  0  0  0  0
 15 16  1  0  0  0  0
 15 17  1  0  0  0  0
  1 18  1  0  0  0  0
 15 18  1  0  0  0  0
 18 19  1  0  0  0  0
 18 20  1  0  0  0  0
 13 21  1  0  0  0  0
 21 22  1  0  0  0  0
M  END
> <VConfSearch Rank>
983

> <Conf_Id>
99

> <Delta U+W>
-3.852

> <U+W>
2.572

> <U>
3.922

> <W>
-1.350

> <W(PB)>
-3.345

> <W(SA)>
1.995

> <Valence>
12.571

> <Coulomb>
-10.581

> <VdW>
1.932

> <VdW6>
-10.483

> <VdW12>
12.415

> <Bond>
0.268

> <Angle>
3.728

> <Pdih>
8.575

> <Idih>
0.000

> <Tether>
0.000

$$$$
VeraChem MOL file


 22 22  0  0  0  0  0  0  0  0999 V2000     
   19.0207   18.3166   22.8784 C   0  0  0  0  0  0  0  0  0  0  0  0
   18.2536   17.7747   23.4487 H   0  0  0  0  0  0  0  0  0  0  0  0
   19.1607   17.7279   21.9620 H   0  0  0  0  0  0  0  0  0  0  0  0
   20.3301   18.3177   23.7206 C   0  0  0  0  0  0  0  0  0  0  0  0
   20.1298   17.7760   24.6554 H   0  0  0  0  0  0  0  0  0  0  0  0
   21.1066   17.7296   23.2135 H   0  0  0  0  0  0  0  0  0  0  0  0
   20.8959   19.7115   24.0944 C   0  0  0  0  0  0  0  0  0  0  0  0
   21.6922   19.5740   24.8385 H   0  0  0  0  0  0  0  0  0  0  0  0
   20.1278   20.2949   24.6173 H   0  0  0  0  0  0  0  0  0  0  0  0
   21.4806   20.5464   22.9214 C   0  0  0  0  0  0  0  0  0  0  0  0
   21.4746   21.6036   23.2165 H   0  0  0  0  0  0  0  0  0  0  0  0
   22.5404   20.2841   22.8036 H   0  0  0  0  0  0  0  0  0  0  0  0
   20.8120   20.4222   21.5301 C   0  0  0  0  0  0  0  0  0  0  0  0
   21.2099   21.2387   20.9105 H   0  0  0  0  0  0  0  0  0  0  0  0
   19.2686   20.5444   21.4982 C   0  0  0  0  0  0  0  0  0  0  0  0
   19.0012   21.6014   21.6248 H   0  0  0  0  0  0  0  0  0  0  0  0
   18.9368   20.2807   20.4851 H   0  0  0  0  0  0  0  0  0  0  0  0
   18.4445   19.7096   22.5174 C   0  0  0  0  0  0  0  0  0  0  0  0
   18.2865   20.2936   23.4326 H   0  0  0  0  0  0  0  0  0  0  0  0
   17.4373   19.5707   22.1014 H   0  0  0  0  0  0  0  0  0  0  0  0
   21.2058   19.2033   20.9197 O   0  0  0  0  0  0  0  0  0  0  0  0
   20.8304   18.5143   21.5040 H   0  0  0  0  0  0  0  0  0  0  0  0
  1  2  1  0  0  0  0
  1  3  1  0  0  0  0
  1  4  1  0  0  0  0
  4  5  1  0  0  0  0
  4  6  1  0  0  0  0
  4  7  1  0  0  0  0
  7  8  1  0  0  0  0
  7  9  1  0  0  0  0
  7 10  1  0  0  0  0
 10 11  1  0  0  0  0
 10 12  1  0  0  0  0
 10 13  1  0  0  0  0
 13 14  1  0  0  0  0
 13 15  1  0  0  0  0
 15 16  1  0  0  0  0
 15 17  1  0  0  0  0
  1 18  1  0  0  0  0
 15 18  1  0  0  0  0
 18 19  1  0  0  0  0
 18 20  1  0  0  0  0
 13 21  1  0  0  0  0
 21 22  1  0  0  0  0
M  END
> <VConfSearch Rank>
984

> <Conf_Id>
98

> <Delta U+W>
0.930

> <U+W>
7.353

> <U>
8.455

> <W>
-1.102

> <W(PB)>
-3.101

> <W(SA)>
2.000

> <Valence>
15.601

> <Coulomb>
-10.573

> <VdW>
3.427

> <VdW6>
-11.360

> <VdW12>
14.787

> <Bond>
0.471

> <Angle>
5.445

> <Pdih>
9.685

> <Idih>
0.000

> <Tether>
0.000

$$$$
VeraChem MOL file


 22 22  0  0  0  0  0  0  0  0999 V2000     
   18.4706   18.7809   22.6543 C   0  0  0  0  0  0  0  0  0  0  0  0
   18.9132   17.9916   22.0331 H   0  0  0  0  0  0  0  0  0  0  0  0
   17.4361   18.4573   22.8322 H   0  0  0  0  0  0  0  0  0  0  0  0
   18.4415   20.1144   21.8648 C   0  0  0  0  0  0  0  0  0  0  0  0
   17.8482   19.9473   20.9555 H   0  0  0  0  0  0  0  0  0  0  0  0
   17.8939   20.8716   22.4422 H   0  0  0  0  0  0  0  0  0  0  0  0
   19.8206   20.6927   21.4428 C   0  0  0  0  0  0  0  0  0  0  0  0
   20.0947   21.5290   22.0990 H   0  0  0  0  0  0  0  0  0  0  0  0
   19.7137   21.1396   20.4451 H   0  0  0  0  0  0  0  0  0  0  0  0
   20.9810   19.6633   21.4047 C   0  0  0  0  0  0  0  0  0  0  0  0
   20.6768   18.8004   20.7993 H   0  0  0  0  0  0  0  0  0  0  0  0
   21.8208   20.1104   20.8558 H   0  0  0  0  0  0  0  0  0  0  0  0
   21.4920   19.1630   22.7876 C   0  0  0  0  0  0  0  0  0  0  0  0
   21.5931   18.0693   22.7360 H   0  0  0  0  0  0  0  0  0  0  0  0
   20.5984   19.5086   24.0051 C   0  0  0  0  0  0  0  0  0  0  0  0
   21.1206   19.2135   24.9245 H   0  0  0  0  0  0  0  0  0  0  0  0
   20.4816   20.5964   24.0802 H   0  0  0  0  0  0  0  0  0  0  0  0
   19.2022   18.8376   24.0159 C   0  0  0  0  0  0  0  0  0  0  0  0
   19.3045   17.8104   24.3917 H   0  0  0  0  0  0  0  0  0  0  0  0
   18.5690   19.3630   24.7437 H   0  0  0  0  0  0  0  0  0  0  0  0
   22.7753   19.7302   23.0259 O   0  0  0  0  0  0  0  0  0  0  0  0
   23.0973   19.3553   23.8720 H   0  0  0  0  0  0  0  0  0  0  0  0
  1  2  1  0  0  0  0
  1  3  1  0  0  0  0
  1  4  1  0  0  0  0
  4  5  1  0  0  0  0
  4  6  1  0  0  0  0
  4  7  1  0  0  0  0
  7  8  1  0  0  0  0
  7  9  1  0  0  0  0
  7 10  1  0  0  0  0
 10 11  1  0  0  0  0
 10 12  1  0  0  0  0
 10 13  1  0  0  0  0
 13 14  1  0  0  0  0
 13 15  1  0  0  0  0
 15 16  1  0  0  0  0
 15 17  1  0  0  0  0
  1 18  1  0  0  0  0
 15 18  1  0  0  0  0
 18 19  1  0  0  0  0
 18 20  1  0  0  0  0
 13 21  1  0  0  0  0
 21 22  1  0  0  0  0
M  END
> <VConfSearch Rank>
985

> <Conf_Id>
141

> <Delta U+W>
0.000

> <U+W>
6.423

> <U>
8.781

> <W>
-2.358

> <W(PB)>
-4.373

> <W(SA)>
2.015

> <Valence>
13.328

> <Coulomb>
-8.387

> <VdW>
3.840

> <VdW6>
-9.744

> <VdW12>
13.584

> <Bond>
0.436

> <Angle>
3.478

> <Pdih>
9.415

> <Idih>
0.000

> <Tether>
0.000

$$$$
VeraChem MOL file


 22 22  0  0  0  0  0  0  0  0999 V2000     
   20.4901   20.9017   23.7245 C   0  0  0  0  0  0  0  0  0  0  0  0
   19.4553   21.2702   23.7306 H   0  0  0  0  0  0  0  0  0  0  0  0
   21.0489   21.5546   24.4089 H   0  0  0  0  0  0  0  0  0  0  0  0
   21.1207   21.0458   22.3184 C   0  0  0  0  0  0  0  0  0  0  0  0
   21.2542   22.1146   22.1026 H   0  0  0  0  0  0  0  0  0  0  0  0
   22.1310   20.6145   22.3265 H   0  0  0  0  0  0  0  0  0  0  0  0
   20.3065   20.4188   21.1633 C   0  0  0  0  0  0  0  0  0  0  0  0
   20.8871   20.5269   20.2370 H   0  0  0  0  0  0  0  0  0  0  0  0
   19.3860   20.9984   21.0091 H   0  0  0  0  0  0  0  0  0  0  0  0
   19.9492   18.9240   21.3510 C   0  0  0  0  0  0  0  0  0  0  0  0
   19.5872   18.5455   20.3860 H   0  0  0  0  0  0  0  0  0  0  0  0
   20.8462   18.3387   21.5915 H   0  0  0  0  0  0  0  0  0  0  0  0
   18.8554   18.7017   22.4194 C   0  0  0  0  0  0  0  0  0  0  0  0
   18.1746   19.5649   22.3998 H   0  0  0  0  0  0  0  0  0  0  0  0
   19.3895   18.5382   23.8607 C   0  0  0  0  0  0  0  0  0  0  0  0
   18.5501   18.7107   24.5466 H   0  0  0  0  0  0  0  0  0  0  0  0
   19.6971   17.4957   24.0181 H   0  0  0  0  0  0  0  0  0  0  0  0
   20.5661   19.4577   24.2732 C   0  0  0  0  0  0  0  0  0  0  0  0
   20.5997   19.4943   25.3706 H   0  0  0  0  0  0  0  0  0  0  0  0
   21.5159   18.9996   23.9652 H   0  0  0  0  0  0  0  0  0  0  0  0
   18.1204   17.5304   22.0862 O   0  0  0  0  0  0  0  0  0  0  0  0
   17.7279   17.6855   21.2016 H   0  0  0  0  0  0  0  0  0  0  0  0
  1  2  1  0  0  0  0
  1  3  1  0  0  0  0
  1  4  1  0  0  0  0
  4  5  1  0  0  0  0
  4  6  1  0  0  0  0
  4  7  1  0  0  0  0
  7  8  1  0  0  0  0
  7  9  1  0  0  0  0
  7 10  1  0  0  0  0
 10 11  1  0  0  0  0
 10 12  1  0  0  0  0
 10 13  1  0  0  0  0
 13 14  1  0  0  0  0
 13 15  1  0  0  0  0
 15 16  1  0  0  0  0
 15 17  1  0  0  0  0
  1 18  1  0  0  0  0
 15 18  1  0  0  0  0
 18 19  1  0  0  0  0
 18 20  1  0  0  0  0
 13 21  1  0  0  0  0
 21 22  1  0  0  0  0
M  END
> <VConfSearch Rank>
986

> <Conf_Id>
144

> <Delta U+W>
-3.291

> <U+W>
3.132

> <U>
5.411

> <W>
-2.279

> <W(PB)>
-4.300

> <W(SA)>
2.021

> <Valence>
11.909

> <Coulomb>
-8.733

> <VdW>
2.236

> <VdW6>
-8.936

> <VdW12>
11.172

> <Bond>
0.223

> <Angle>
2.457

> <Pdih>
9.228

> <Idih>
0.000

> <Tether>
0.000

$$$$
VeraChem MOL file


 22 22  0  0  0  0  0  0  0  0999 V2000     
   18.4452   19.2076   23.4594 C   0  0  0  0  0  0  0  0  0  0  0  0
   17.6176   18.7193   23.9920 H   0  0  0  0  0  0  0  0  0  0  0  0
   18.1401   20.2533   23.3174 H   0  0  0  0  0  0  0  0  0  0  0  0
   18.6239   18.4959   22.0980 C   0  0  0  0  0  0  0  0  0  0  0  0
   19.2267   17.5881   22.2364 H   0  0  0  0  0  0  0  0  0  0  0  0
   17.6430   18.1456   21.7487 H   0  0  0  0  0  0  0  0  0  0  0  0
   19.2453   19.3663   20.9789 C   0  0  0  0  0  0  0  0  0  0  0  0
   18.4526   19.9657   20.5106 H   0  0  0  0  0  0  0  0  0  0  0  0
   19.6174   18.6967   20.1914 H   0  0  0  0  0  0  0  0  0  0  0  0
   20.3848   20.3237   21.4065 C   0  0  0  0  0  0  0  0  0  0  0  0
   20.9378   20.6126   20.5025 H   0  0  0  0  0  0  0  0  0  0  0  0
   19.9482   21.2518   21.7975 H   0  0  0  0  0  0  0  0  0  0  0  0
   21.3673   19.7429   22.4482 C   0  0  0  0  0  0  0  0  0  0  0  0
   21.4936   18.6649   22.2742 H   0  0  0  0  0  0  0  0  0  0  0  0
   20.8995   19.9823   23.9018 C   0  0  0  0  0  0  0  0  0  0  0  0
   21.7404   19.7821   24.5793 H   0  0  0  0  0  0  0  0  0  0  0  0
   20.6479   21.0424   24.0357 H   0  0  0  0  0  0  0  0  0  0  0  0
   19.7020   19.1152   24.3577 C   0  0  0  0  0  0  0  0  0  0  0  0
   20.0200   18.0664   24.4334 H   0  0  0  0  0  0  0  0  0  0  0  0
   19.4271   19.4188   25.3770 H   0  0  0  0  0  0  0  0  0  0  0  0
   22.6246   20.3850   22.2832 O   0  0  0  0  0  0  0  0  0  0  0  0
   22.4712   21.3389   22.4437 H   0  0  0  0  0  0  0  0  0  0  0  0
  1  2  1  0  0  0  0
  1  3  1  0  0  0  0
  1  4  1  0  0  0  0
  4  5  1  0  0  0  0
  4  6  1  0  0  0  0
  4  7  1  0  0  0  0
  7  8  1  0  0  0  0
  7  9  1  0  0  0  0
  7 10  1  0  0  0  0
 10 11  1  0  0  0  0
 10 12  1  0  0  0  0
 10 13  1  0  0  0  0
 13 14  1  0  0  0  0
 13 15  1  0  0  0  0
 15 16  1  0  0  0  0
 15 17  1  0  0  0  0
  1 18  1  0  0  0  0
 15 18  1  0  0  0  0
 18 19  1  0  0  0  0
 18 20  1  0  0  0  0
 13 21  1  0  0  0  0
 21 22  1  0  0  0  0
M  END
> <VConfSearch Rank>
987

> <Conf_Id>
76

> <Delta U+W>
-3.175

> <U+W>
3.248

> <U>
5.336

> <W>
-2.088

> <W(PB)>
-4.098

> <W(SA)>
2.010

> <Valence>
12.390

> <Coulomb>
-9.270

> <VdW>
2.216

> <VdW6>
-8.967

> <VdW12>
11.183

> <Bond>
0.218

> <Angle>
2.426

> <Pdih>
9.745

> <Idih>
0.000

> <Tether>
0.000

$$$$
VeraChem MOL file


 22 22  0  0  0  0  0  0  0  0999 V2000     
   19.2472   18.2710   23.7771 C   0  0  0  0  0  0  0  0  0  0  0  0
   19.5279   17.2144   23.8846 H   0  0  0  0  0  0  0  0  0  0  0  0
   18.4380   18.4395   24.5007 H   0  0  0  0  0  0  0  0  0  0  0  0
   18.6934   18.4815   22.3476 C   0  0  0  0  0  0  0  0  0  0  0  0
   19.2548   17.8554   21.6410 H   0  0  0  0  0  0  0  0  0  0  0  0
   17.6633   18.1005   22.3231 H   0  0  0  0  0  0  0  0  0  0  0  0
   18.6987   19.9468   21.8530 C   0  0  0  0  0  0  0  0  0  0  0  0
   18.4550   20.6390   22.6705 H   0  0  0  0  0  0  0  0  0  0  0  0
   17.8978   20.0588   21.1099 H   0  0  0  0  0  0  0  0  0  0  0  0
   20.0329   20.3455   21.1726 C   0  0  0  0  0  0  0  0  0  0  0  0
   20.2868   19.5977   20.4105 H   0  0  0  0  0  0  0  0  0  0  0  0
   19.8796   21.2845   20.6245 H   0  0  0  0  0  0  0  0  0  0  0  0
   21.2479   20.5338   22.1093 C   0  0  0  0  0  0  0  0  0  0  0  0
   22.1334   20.6302   21.4646 H   0  0  0  0  0  0  0  0  0  0  0  0
   21.5183   19.3588   23.0824 C   0  0  0  0  0  0  0  0  0  0  0  0
   21.6516   18.4288   22.5147 H   0  0  0  0  0  0  0  0  0  0  0  0
   22.4831   19.5484   23.5703 H   0  0  0  0  0  0  0  0  0  0  0  0
   20.4476   19.1574   24.1861 C   0  0  0  0  0  0  0  0  0  0  0  0
   20.9246   18.6960   25.0613 H   0  0  0  0  0  0  0  0  0  0  0  0
   20.0791   20.1308   24.5356 H   0  0  0  0  0  0  0  0  0  0  0  0
   21.0956   21.7478   22.8380 O   0  0  0  0  0  0  0  0  0  0  0  0
   21.8556   21.8013   23.4527 H   0  0  0  0  0  0  0  0  0  0  0  0
  1  2  1  0  0  0  0
  1  3  1  0  0  0  0
  1  4  1  0  0  0  0
  4  5  1  0  0  0  0
  4  6  1  0  0  0  0
  4  7  1  0  0  0  0
  7  8  1  0  0  0  0
  7  9  1  0  0  0  0
  7 10  1  0  0  0  0
 10 11  1  0  0  0  0
 10 12  1  0  0  0  0
 10 13  1  0  0  0  0
 13 14  1  0  0  0  0
 13 15  1  0  0  0  0
 15 16  1  0  0  0  0
 15 17  1  0  0  0  0
  1 18  1  0  0  0  0
 15 18  1  0  0  0  0
 18 19  1  0  0  0  0
 18 20  1  0  0  0  0
 13 21  1  0  0  0  0
 21 22  1  0  0  0  0
M  END
> <VConfSearch Rank>
988

> <Conf_Id>
95

> <Delta U+W>
-2.289

> <U+W>
4.134

> <U>
6.373

> <W>
-2.240

> <W(PB)>
-4.254

> <W(SA)>
2.015

> <Valence>
12.093

> <Coulomb>
-8.058

> <VdW>
2.339

> <VdW6>
-9.683

> <VdW12>
12.022

> <Bond>
0.268

> <Angle>
3.005

> <Pdih>
8.820

> <Idih>
0.000

> <Tether>
0.000

$$$$
VeraChem MOL file


 22 22  0  0  0  0  0  0  0  0999 V2000     
   19.9511   20.2978   20.9190 C   0  0  0  0  0  0  0  0  0  0  0  0
   19.3516   21.1378   20.5425 H   0  0  0  0  0  0  0  0  0  0  0  0
   20.5282   19.9342   20.0579 H   0  0  0  0  0  0  0  0  0  0  0  0
   18.9840   19.1818   21.3811 C   0  0  0  0  0  0  0  0  0  0  0  0
   18.0901   19.6352   21.8304 H   0  0  0  0  0  0  0  0  0  0  0  0
   18.6264   18.6514   20.4880 H   0  0  0  0  0  0  0  0  0  0  0  0
   19.5907   18.1550   22.3656 C   0  0  0  0  0  0  0  0  0  0  0  0
   20.6361   17.9352   22.1096 H   0  0  0  0  0  0  0  0  0  0  0  0
   19.0434   17.2096   22.2513 H   0  0  0  0  0  0  0  0  0  0  0  0
   19.4635   18.5984   23.8449 C   0  0  0  0  0  0  0  0  0  0  0  0
   18.4247   18.8923   24.0435 H   0  0  0  0  0  0  0  0  0  0  0  0
   19.6480   17.7289   24.4890 H   0  0  0  0  0  0  0  0  0  0  0  0
   20.3968   19.7453   24.2958 C   0  0  0  0  0  0  0  0  0  0  0  0
   20.0627   20.0514   25.2977 H   0  0  0  0  0  0  0  0  0  0  0  0
   20.3652   21.0095   23.4007 C   0  0  0  0  0  0  0  0  0  0  0  0
   19.3414   21.4001   23.3400 H   0  0  0  0  0  0  0  0  0  0  0  0
   20.9516   21.7837   23.9122 H   0  0  0  0  0  0  0  0  0  0  0  0
   20.9506   20.8240   21.9765 C   0  0  0  0  0  0  0  0  0  0  0  0
   21.3358   21.7906   21.6250 H   0  0  0  0  0  0  0  0  0  0  0  0
   21.8248   20.1608   22.0158 H   0  0  0  0  0  0  0  0  0  0  0  0
   21.7298   19.2549   24.4033 O   0  0  0  0  0  0  0  0  0  0  0  0
   21.6900   18.4517   24.9615 H   0  0  0  0  0  0  0  0  0  0  0  0
  1  2  1  0  0  0  0
  1  3  1  0  0  0  0
  1  4  1  0  0  0  0
  4  5  1  0  0  0  0
  4  6  1  0  0  0  0
  4  7  1  0  0  0  0
  7  8  1  0  0  0  0
  7  9  1  0  0  0  0
  7 10  1  0  0  0  0
 10 11  1  0  0  0  0
 10 12  1  0  0  0  0
 10 13  1  0  0  0  0
 13 14  1  0  0  0  0
 13 15  1  0  0  0  0
 15 16  1  0  0  0  0
 15 17  1  0  0  0  0
  1 18  1  0  0  0  0
 15 18  1  0  0  0  0
 18 19  1  0  0  0  0
 18 20  1  0  0  0  0
 13 21  1  0  0  0  0
 21 22  1  0  0  0  0
M  END
> <VConfSearch Rank>
989

> <Conf_Id>
41

> <Delta U+W>
-2.114

> <U+W>
4.310

> <U>
6.598

> <W>
-2.289

> <W(PB)>
-4.294

> <W(SA)>
2.005

> <Valence>
12.082

> <Coulomb>
-7.801

> <VdW>
2.317

> <VdW6>
-9.658

> <VdW12>
11.975

> <Bond>
0.267

> <Angle>
3.051

> <Pdih>
8.764

> <Idih>
0.000

> <Tether>
0.000

$$$$
VeraChem MOL file


 22 22  0  0  0  0  0  0  0  0999 V2000     
   18.7015   20.4228   22.9938 C   0  0  0  0  0  0  0  0  0  0  0  0
   17.7751   20.8579   23.3926 H   0  0  0  0  0  0  0  0  0  0  0  0
   19.1001   21.1524   22.2755 H   0  0  0  0  0  0  0  0  0  0  0  0
   18.3364   19.1001   22.2835 C   0  0  0  0  0  0  0  0  0  0  0  0
   17.9993   18.3648   23.0266 H   0  0  0  0  0  0  0  0  0  0  0  0
   17.4748   19.2810   21.6265 H   0  0  0  0  0  0  0  0  0  0  0  0
   19.4727   18.4902   21.4337 C   0  0  0  0  0  0  0  0  0  0  0  0
   19.6639   19.1329   20.5641 H   0  0  0  0  0  0  0  0  0  0  0  0
   19.1133   17.5376   21.0220 H   0  0  0  0  0  0  0  0  0  0  0  0
   20.7977   18.2230   22.1981 C   0  0  0  0  0  0  0  0  0  0  0  0
   20.5969   17.6459   23.1096 H   0  0  0  0  0  0  0  0  0  0  0  0
   21.4196   17.5745   21.5679 H   0  0  0  0  0  0  0  0  0  0  0  0
   21.6464   19.4738   22.5435 C   0  0  0  0  0  0  0  0  0  0  0  0
   22.6587   19.1133   22.7769 H   0  0  0  0  0  0  0  0  0  0  0  0
   21.1822   20.2861   23.7804 C   0  0  0  0  0  0  0  0  0  0  0  0
   21.7632   19.9450   24.6470 H   0  0  0  0  0  0  0  0  0  0  0  0
   21.4618   21.3388   23.6424 H   0  0  0  0  0  0  0  0  0  0  0  0
   19.6842   20.2182   24.1679 C   0  0  0  0  0  0  0  0  0  0  0  0
   19.4713   19.2643   24.6689 H   0  0  0  0  0  0  0  0  0  0  0  0
   19.4970   20.9948   24.9219 H   0  0  0  0  0  0  0  0  0  0  0  0
   21.7460   20.3360   21.4132 O   0  0  0  0  0  0  0  0  0  0  0  0
   22.3218   21.0823   21.6768 H   0  0  0  0  0  0  0  0  0  0  0  0
  1  2  1  0  0  0  0
  1  3  1  0  0  0  0
  1  4  1  0  0  0  0
  4  5  1  0  0  0  0
  4  6  1  0  0  0  0
  4  7  1  0  0  0  0
  7  8  1  0  0  0  0
  7  9  1  0  0  0  0
  7 10  1  0  0  0  0
 10 11  1  0  0  0  0
 10 12  1  0  0  0  0
 10 13  1  0  0  0  0
 13 14  1  0  0  0  0
 13 15  1  0  0  0  0
 15 16  1  0  0  0  0
 15 17  1  0  0  0  0
  1 18  1  0  0  0  0
 15 18  1  0  0  0  0
 18 19  1  0  0  0  0
 18 20  1  0  0  0  0
 13 21  1  0  0  0  0
 21 22  1  0  0  0  0
M  END
> <VConfSearch Rank>
990

> <Conf_Id>
104

> <Delta U+W>
-1.172

> <U+W>
5.252

> <U>
7.482

> <W>
-2.230

> <W(PB)>
-4.220

> <W(SA)>
1.990

> <Valence>
12.309

> <Coulomb>
-7.084

> <VdW>
2.258

> <VdW6>
-9.770

> <VdW12>
12.028

> <Bond>
0.284

> <Angle>
3.491

> <Pdih>
8.535

> <Idih>
0.000

> <Tether>
0.000

$$$$
VeraChem MOL file


 22 22  0  0  0  0  0  0  0  0999 V2000     
   19.9194   20.6113   21.3894 C   0  0  0  0  0  0  0  0  0  0  0  0
   19.4991   21.4200   22.0024 H   0  0  0  0  0  0  0  0  0  0  0  0
   19.9415   20.9931   20.3595 H   0  0  0  0  0  0  0  0  0  0  0  0
   19.0023   19.3671   21.4128 C   0  0  0  0  0  0  0  0  0  0  0  0
   18.1678   19.5340   20.7178 H   0  0  0  0  0  0  0  0  0  0  0  0
   19.5463   18.5066   21.0018 H   0  0  0  0  0  0  0  0  0  0  0  0
   18.4007   19.0022   22.7936 C   0  0  0  0  0  0  0  0  0  0  0  0
   18.1711   17.9277   22.7999 H   0  0  0  0  0  0  0  0  0  0  0  0
   17.4305   19.5077   22.8944 H   0  0  0  0  0  0  0  0  0  0  0  0
   19.2424   19.3507   24.0511 C   0  0  0  0  0  0  0  0  0  0  0  0
   19.1320   20.4203   24.2717 H   0  0  0  0  0  0  0  0  0  0  0  0
   18.7980   18.8323   24.9106 H   0  0  0  0  0  0  0  0  0  0  0  0
   20.7488   19.0056   24.0082 C   0  0  0  0  0  0  0  0  0  0  0  0
   21.0978   18.9353   25.0485 H   0  0  0  0  0  0  0  0  0  0  0  0
   21.5967   20.1026   23.3257 C   0  0  0  0  0  0  0  0  0  0  0  0
   21.4162   21.0564   23.8384 H   0  0  0  0  0  0  0  0  0  0  0  0
   22.6563   19.8716   23.4961 H   0  0  0  0  0  0  0  0  0  0  0  0
   21.3769   20.3007   21.8054 C   0  0  0  0  0  0  0  0  0  0  0  0
   22.0137   21.1343   21.4794 H   0  0  0  0  0  0  0  0  0  0  0  0
   21.7409   19.4203   21.2587 H   0  0  0  0  0  0  0  0  0  0  0  0
   20.9562   17.7568   23.3666 O   0  0  0  0  0  0  0  0  0  0  0  0
   20.5491   17.8711   22.4849 H   0  0  0  0  0  0  0  0  0  0  0  0
  1  2  1  0  0  0  0
  1  3  1  0  0  0  0
  1  4  1  0  0  0  0
  4  5  1  0  0  0  0
  4  6  1  0  0  0  0
  4  7  1  0  0  0  0
  7  8  1  0  0  0  0
  7  9  1  0  0  0  0
  7 10  1  0  0  0  0
 10 11  1  0  0  0  0
 10 12  1  0  0  0  0
 10 13  1  0  0  0  0
 13 14  1  0  0  0  0
 13 15  1  0  0  0  0
 15 16  1  0  0  0  0
 15 17  1  0  0  0  0
  1 18  1  0  0  0  0
 15 18  1  0  0  0  0
 18 19  1  0  0  0  0
 18 20  1  0  0  0  0
 13 21  1  0  0  0  0
 21 22  1  0  0  0  0
M  END
> <VConfSearch Rank>
991

> <Conf_Id>
99

> <Delta U+W>
-3.852

> <U+W>
2.572

> <U>
3.922

> <W>
-1.350

> <W(PB)>
-3.345

> <W(SA)>
1.995

> <Valence>
12.571

> <Coulomb>
-10.581

> <VdW>
1.932

> <VdW6>
-10.483

> <VdW12>
12.415

> <Bond>
0.268

> <Angle>
3.728

> <Pdih>
8.575

> <Idih>
0.000

> <Tether>
0.000

$$$$
VeraChem MOL file


 22 22  0  0  0  0  0  0  0  0999 V2000     
   19.8100   21.2333   22.5445 C   0  0  0  0  0  0  0  0  0  0  0  0
   19.9653   22.2693   22.8758 H   0  0  0  0  0  0  0  0  0  0  0  0
   19.1551   21.3120   21.6665 H   0  0  0  0  0  0  0  0  0  0  0  0
   19.0825   20.4697   23.6897 C   0  0  0  0  0  0  0  0  0  0  0  0
   18.9228   21.1753   24.5167 H   0  0  0  0  0  0  0  0  0  0  0  0
   18.0740   20.1772   23.3684 H   0  0  0  0  0  0  0  0  0  0  0  0
   19.8244   19.2339   24.2601 C   0  0  0  0  0  0  0  0  0  0  0  0
   19.3076   18.9111   25.1741 H   0  0  0  0  0  0  0  0  0  0  0  0
   20.8259   19.5269   24.5986 H   0  0  0  0  0  0  0  0  0  0  0  0
   19.9289   18.0055   23.3140 C   0  0  0  0  0  0  0  0  0  0  0  0
   20.7715   17.3864   23.6477 H   0  0  0  0  0  0  0  0  0  0  0  0
   19.0364   17.3816   23.4560 H   0  0  0  0  0  0  0  0  0  0  0  0
   20.0812   18.2627   21.7946 C   0  0  0  0  0  0  0  0  0  0  0  0
   20.3637   17.3046   21.3352 H   0  0  0  0  0  0  0  0  0  0  0  0
   21.1576   19.2955   21.3789 C   0  0  0  0  0  0  0  0  0  0  0  0
   22.1455   18.8288   21.4837 H   0  0  0  0  0  0  0  0  0  0  0  0
   21.0381   19.4832   20.3036 H   0  0  0  0  0  0  0  0  0  0  0  0
   21.1863   20.6634   22.1157 C   0  0  0  0  0  0  0  0  0  0  0  0
   21.8490   20.6005   22.9877 H   0  0  0  0  0  0  0  0  0  0  0  0
   21.6716   21.3922   21.4523 H   0  0  0  0  0  0  0  0  0  0  0  0
   18.8267   18.6360   21.2467 O   0  0  0  0  0  0  0  0  0  0  0  0
   18.6217   19.4868   21.6837 H   0  0  0  0  0  0  0  0  0  0  0  0
  1  2  1  0  0  0  0
  1  3  1  0  0  0  0
  1  4  1  0  0  0  0
  4  5  1  0  0  0  0
  4  6  1  0  0  0  0
  4  7  1  0  0  0  0
  7  8  1  0  0  0  0
  7  9  1  0  0  0  0
  7 10  1  0  0  0  0
 10 11  1  0  0  0  0
 10 12  1  0  0  0  0
 10 13  1  0  0  0  0
 13 14  1  0  0  0  0
 13 15  1  0  0  0  0
 15 16  1  0  0  0  0
 15 17  1  0  0  0  0
  1 18  1  0  0  0  0
 15 18  1  0  0  0  0
 18 19  1  0  0  0  0
 18 20  1  0  0  0  0
 13 21  1  0  0  0  0
 21 22  1  0  0  0  0
M  END
> <VConfSearch Rank>
992

> <Conf_Id>
98

> <Delta U+W>
0.930

> <U+W>
7.353

> <U>
8.455

> <W>
-1.102

> <W(PB)>
-3.101

> <W(SA)>
2.000

> <Valence>
15.601

> <Coulomb>
-10.573

> <VdW>
3.427

> <VdW6>
-11.360

> <VdW12>
14.787

> <Bond>
0.471

> <Angle>
5.445

> <Pdih>
9.685

> <Idih>
0.000

> <Tether>
0.000

$$$$
VeraChem MOL file


 22 22  0  0  0  0  0  0  0  0999 V2000     
   19.4644   18.8884   24.1496 C   0  0  0  0  0  0  0  0  0  0  0  0
   20.1291   18.0344   23.9664 H   0  0  0  0  0  0  0  0  0  0  0  0
   19.0226   18.6991   25.1374 H   0  0  0  0  0  0  0  0  0  0  0  0
   18.3281   18.9034   23.0957 C   0  0  0  0  0  0  0  0  0  0  0  0
   17.7840   17.9530   23.1825 H   0  0  0  0  0  0  0  0  0  0  0  0
   17.6010   19.6866   23.3500 H   0  0  0  0  0  0  0  0  0  0  0  0
   18.7671   19.0757   21.6150 C   0  0  0  0  0  0  0  0  0  0  0  0
   18.5716   20.1031   21.2816 H   0  0  0  0  0  0  0  0  0  0  0  0
   18.1181   18.4473   20.9901 H   0  0  0  0  0  0  0  0  0  0  0  0
   20.2460   18.7092   21.3214 C   0  0  0  0  0  0  0  0  0  0  0  0
   20.4530   17.7058   21.7139 H   0  0  0  0  0  0  0  0  0  0  0  0
   20.3691   18.6170   20.2338 H   0  0  0  0  0  0  0  0  0  0  0  0
   21.3140   19.7019   21.8671 C   0  0  0  0  0  0  0  0  0  0  0  0
   22.1066   19.1140   22.3521 H   0  0  0  0  0  0  0  0  0  0  0  0
   20.8034   20.7548   22.8825 C   0  0  0  0  0  0  0  0  0  0  0  0
   21.6131   21.4645   23.0962 H   0  0  0  0  0  0  0  0  0  0  0  0
   20.0105   21.3568   22.4227 H   0  0  0  0  0  0  0  0  0  0  0  0
   20.3021   20.1860   24.2334 C   0  0  0  0  0  0  0  0  0  0  0  0
   21.1682   19.9922   24.8808 H   0  0  0  0  0  0  0  0  0  0  0  0
   19.7140   20.9625   24.7414 H   0  0  0  0  0  0  0  0  0  0  0  0
   21.8765   20.4082   20.7671 O   0  0  0  0  0  0  0  0  0  0  0  0
   22.5827   20.9818   21.1309 H   0  0  0  0  0  0  0  0  0  0  0  0
  1  2  1  0  0  0  0
  1  3  1  0  0  0  0
  1  4  1  0  0  0  0
  4  5  1  0  0  0  0
  4  6  1  0  0  0  0
  4  7  1  0  0  0  0
  7  8  1  0  0  0  0
  7  9  1  0  0  0  0
  7 10  1  0  0  0  0
 10 11  1  0  0  0  0
 10 12  1  0  0  0  0
 10 13  1  0  0  0  0
 13 14  1  0  0  0  0
 13 15  1  0  0  0  0
 15 16  1  0  0  0  0
 15 17  1  0  0  0  0
  1 18  1  0  0  0  0
 15 18  1  0  0  0  0
 18 19  1  0  0  0  0
 18 20  1  0  0  0  0
 13 21  1  0  0  0  0
 21 22  1  0  0  0  0
M  END
> <VConfSearch Rank>
993

> <Conf_Id>
141

> <Delta U+W>
0.000

> <U+W>
6.423

> <U>
8.781

> <W>
-2.358

> <W(PB)>
-4.373

> <W(SA)>
2.015

> <Valence>
13.328

> <Coulomb>
-8.387

> <VdW>
3.840

> <VdW6>
-9.744

> <VdW12>
13.584

> <Bond>
0.436

> <Angle>
3.478

> <Pdih>
9.415

> <Idih>
0.000

> <Tether>
0.000

$$$$
VeraChem MOL file


 22 22  0  0  0  0  0  0  0  0999 V2000     
   20.6052   21.1558   22.1241 C   0  0  0  0  0  0  0  0  0  0  0  0
   21.5629   20.9102   22.6027 H   0  0  0  0  0  0  0  0  0  0  0  0
   20.7515   22.1275   21.6329 H   0  0  0  0  0  0  0  0  0  0  0  0
   19.4866   21.3272   23.1801 C   0  0  0  0  0  0  0  0  0  0  0  0
   19.6928   22.2344   23.7643 H   0  0  0  0  0  0  0  0  0  0  0  0
   18.5305   21.5110   22.6712 H   0  0  0  0  0  0  0  0  0  0  0  0
   19.3229   20.1465   24.1647 C   0  0  0  0  0  0  0  0  0  0  0  0
   18.4616   20.3581   24.8129 H   0  0  0  0  0  0  0  0  0  0  0  0
   20.1956   20.1032   24.8308 H   0  0  0  0  0  0  0  0  0  0  0  0
   19.1130   18.7643   23.4994 C   0  0  0  0  0  0  0  0  0  0  0  0
   18.7832   18.0666   24.2805 H   0  0  0  0  0  0  0  0  0  0  0  0
   18.2983   18.8077   22.7650 H   0  0  0  0  0  0  0  0  0  0  0  0
   20.4012   18.2145   22.8469 C   0  0  0  0  0  0  0  0  0  0  0  0
   21.2611   18.5589   23.4393 H   0  0  0  0  0  0  0  0  0  0  0  0
   20.6157   18.6532   21.3804 C   0  0  0  0  0  0  0  0  0  0  0  0
   21.6728   18.4868   21.1361 H   0  0  0  0  0  0  0  0  0  0  0  0
   20.0455   17.9905   20.7157 H   0  0  0  0  0  0  0  0  0  0  0  0
   20.2497   20.1181   21.0338 C   0  0  0  0  0  0  0  0  0  0  0  0
   20.7683   20.3865   20.1033 H   0  0  0  0  0  0  0  0  0  0  0  0
   19.1778   20.1842   20.8024 H   0  0  0  0  0  0  0  0  0  0  0  0
   20.3613   16.7930   22.8804 O   0  0  0  0  0  0  0  0  0  0  0  0
   20.3016   16.5344   23.8239 H   0  0  0  0  0  0  0  0  0  0  0  0
  1  2  1  0  0  0  0
  1  3  1  0  0  0  0
  1  4  1  0  0  0  0
  4  5  1  0  0  0  0
  4  6  1  0  0  0  0
  4  7  1  0  0  0  0
  7  8  1  0  0  0  0
  7  9  1  0  0  0  0
  7 10  1  0  0  0  0
 10 11  1  0  0  0  0
 10 12  1  0  0  0  0
 10 13  1  0  0  0  0
 13 14  1  0  0  0  0
 13 15  1  0  0  0  0
 15 16  1  0  0  0  0
 15 17  1  0  0  0  0
  1 18  1  0  0  0  0
 15 18  1  0  0  0  0
 18 19  1  0  0  0  0
 18 20  1  0  0  0  0
 13 21  1  0  0  0  0
 21 22  1  0  0  0  0
M  END
> <VConfSearch Rank>
994

> <Conf_Id>
144

> <Delta U+W>
-3.291

> <U+W>
3.132

> <U>
5.411

> <W>
-2.279

> <W(PB)>
-4.300

> <W(SA)>
2.021

> <Valence>
11.909

> <Coulomb>
-8.733

> <VdW>
2.236

> <VdW6>
-8.936

> <VdW12>
11.172

> <Bond>
0.223

> <Angle>
2.457

> <Pdih>
9.228

> <Idih>
0.000

> <Tether>
0.000

$$$$
VeraChem MOL file


 22 22  0  0  0  0  0  0  0  0999 V2000     
   19.8761   19.0277   21.0031 C   0  0  0  0  0  0  0  0  0  0  0  0
   19.6879   18.4683   20.0766 H   0  0  0  0  0  0  0  0  0  0  0  0
   20.4231   19.9328   20.7059 H   0  0  0  0  0  0  0  0  0  0  0  0
   20.7403   18.1410   21.9301 C   0  0  0  0  0  0  0  0  0  0  0  0
   20.0930   17.4351   22.4681 H   0  0  0  0  0  0  0  0  0  0  0  0
   21.4015   17.5189   21.3114 H   0  0  0  0  0  0  0  0  0  0  0  0
   21.6214   18.9127   22.9420 C   0  0  0  0  0  0  0  0  0  0  0  0
   22.5512   19.2205   22.4444 H   0  0  0  0  0  0  0  0  0  0  0  0
   21.9243   18.2144   23.7343 H   0  0  0  0  0  0  0  0  0  0  0  0
   20.9843   20.1660   23.5913 C   0  0  0  0  0  0  0  0  0  0  0  0
   21.5597   20.4047   24.4960 H   0  0  0  0  0  0  0  0  0  0  0  0
   21.1146   21.0251   22.9206 H   0  0  0  0  0  0  0  0  0  0  0  0
   19.4891   20.0231   23.9540 C   0  0  0  0  0  0  0  0  0  0  0  0
   19.2828   18.9891   24.2649 H   0  0  0  0  0  0  0  0  0  0  0  0
   18.5561   20.4087   22.7836 C   0  0  0  0  0  0  0  0  0  0  0  0
   17.5364   20.5317   23.1726 H   0  0  0  0  0  0  0  0  0  0  0  0
   18.8503   21.3897   22.3885 H   0  0  0  0  0  0  0  0  0  0  0  0
   18.5041   19.3887   21.6215 C   0  0  0  0  0  0  0  0  0  0  0  0
   18.0058   18.4715   21.9642 H   0  0  0  0  0  0  0  0  0  0  0  0
   17.8616   19.8010   20.8316 H   0  0  0  0  0  0  0  0  0  0  0  0
   19.2079   20.8942   25.0413 O   0  0  0  0  0  0  0  0  0  0  0  0
   19.4046   21.8008   24.7275 H   0  0  0  0  0  0  0  0  0  0  0  0
  1  2  1  0  0  0  0
  1  3  1  0  0  0  0
  1  4  1  0  0  0  0
  4  5  1  0  0  0  0
  4  6  1  0  0  0  0
  4  7  1  0  0  0  0
  7  8  1  0  0  0  0
  7  9  1  0  0  0  0
  7 10  1  0  0  0  0
 10 11  1  0  0  0  0
 10 12  1  0  0  0  0
 10 13  1  0  0  0  0
 13 14  1  0  0  0  0
 13 15  1  0  0  0  0
 15 16  1  0  0  0  0
 15 17  1  0  0  0  0
  1 18  1  0  0  0  0
 15 18  1  0  0  0  0
 18 19  1  0  0  0  0
 18 20  1  0  0  0  0
 13 21  1  0  0  0  0
 21 22  1  0  0  0  0
M  END
> <VConfSearch Rank>
995

> <Conf_Id>
76

> <Delta U+W>
-3.175

> <U+W>
3.248

> <U>
5.336

> <W>
-2.088

> <W(PB)>
-4.098

> <W(SA)>
2.010

> <Valence>
12.390

> <Coulomb>
-9.270

> <VdW>
2.216

> <VdW6>
-8.967

> <VdW12>
11.183

> <Bond>
0.218

> <Angle>
2.426

> <Pdih>
9.745

> <Idih>
0.000

> <Tether>
0.000

$$$$
VeraChem MOL file


 22 22  0  0  0  0  0  0  0  0999 V2000     
   21.7147   19.2557   21.8411 C   0  0  0  0  0  0  0  0  0  0  0  0
   22.3134   18.3348   21.8617 H   0  0  0  0  0  0  0  0  0  0  0  0
   22.2378   19.9360   21.1552 H   0  0  0  0  0  0  0  0  0  0  0  0
   21.7236   19.8707   23.2610 C   0  0  0  0  0  0  0  0  0  0  0  0
   21.7024   19.0665   24.0090 H   0  0  0  0  0  0  0  0  0  0  0  0
   22.6865   20.3796   23.4044 H   0  0  0  0  0  0  0  0  0  0  0  0
   20.5794   20.8706   23.5482 C   0  0  0  0  0  0  0  0  0  0  0  0
   20.3562   21.4787   22.6610 H   0  0  0  0  0  0  0  0  0  0  0  0
   20.9251   21.5722   24.3193 H   0  0  0  0  0  0  0  0  0  0  0  0
   19.2978   20.1796   24.0794 C   0  0  0  0  0  0  0  0  0  0  0  0
   19.5629   19.5242   24.9189 H   0  0  0  0  0  0  0  0  0  0  0  0
   18.6358   20.9467   24.5020 H   0  0  0  0  0  0  0  0  0  0  0  0
   18.4845   19.3638   23.0488 C   0  0  0  0  0  0  0  0  0  0  0  0
   17.7286   18.8010   23.6154 H   0  0  0  0  0  0  0  0  0  0  0  0
   19.3021   18.3328   22.2310 C   0  0  0  0  0  0  0  0  0  0  0  0
   19.8090   17.6361   22.9111 H   0  0  0  0  0  0  0  0  0  0  0  0
   18.5898   17.7233   21.6600 H   0  0  0  0  0  0  0  0  0  0  0  0
   20.3251   18.9421   21.2371 C   0  0  0  0  0  0  0  0  0  0  0  0
   20.4700   18.2405   20.4045 H   0  0  0  0  0  0  0  0  0  0  0  0
   19.9121   19.8519   20.7819 H   0  0  0  0  0  0  0  0  0  0  0  0
   17.8066   20.2578   22.1717 O   0  0  0  0  0  0  0  0  0  0  0  0
   17.3488   19.7032   21.5075 H   0  0  0  0  0  0  0  0  0  0  0  0
  1  2  1  0  0  0  0
  1  3  1  0  0  0  0
  1  4  1  0  0  0  0
  4  5  1  0  0  0  0
  4  6  1  0  0  0  0
  4  7  1  0  0  0  0
  7  8  1  0  0  0  0
  7  9  1  0  0  0  0
  7 10  1  0  0  0  0
 10 11  1  0  0  0  0
 10 12  1  0  0  0  0
 10 13  1  0  0  0  0
 13 14  1  0  0  0  0
 13 15  1  0  0  0  0
 15 16  1  0  0  0  0
 15 17  1  0  0  0  0
  1 18  1  0  0  0  0
 15 18  1  0  0  0  0
 18 19  1  0  0  0  0
 18 20  1  0  0  0  0
 13 21  1  0  0  0  0
 21 22  1  0  0  0  0
M  END
> <VConfSearch Rank>
996

> <Conf_Id>
95

> <Delta U+W>
-2.289

> <U+W>
4.134

> <U>
6.373

> <W>
-2.240

> <W(PB)>
-4.254

> <W(SA)>
2.015

> <Valence>
12.093

> <Coulomb>
-8.058

> <VdW>
2.339

> <VdW6>
-9.683

> <VdW12>
12.022

> <Bond>
0.268

> <Angle>
3.005

> <Pdih>
8.820

> <Idih>
0.000

> <Tether>
0.000

$$$$
VeraChem MOL file


 22 22  0  0  0  0  0  0  0  0999 V2000     
   19.3848   18.1794   23.7639 C   0  0  0  0  0  0  0  0  0  0  0  0
   19.0205   17.2023   23.4185 H   0  0  0  0  0  0  0  0  0  0  0  0
   19.3316   18.1465   24.8607 H   0  0  0  0  0  0  0  0  0  0  0  0
   18.4138   19.2680   23.2477 C   0  0  0  0  0  0  0  0  0  0  0  0
   18.0516   18.9912   22.2484 H   0  0  0  0  0  0  0  0  0  0  0  0
   17.5250   19.2637   23.8934 H   0  0  0  0  0  0  0  0  0  0  0  0
   18.9969   20.6997   23.2057 C   0  0  0  0  0  0  0  0  0  0  0  0
   19.6539   20.8821   24.0671 H   0  0  0  0  0  0  0  0  0  0  0  0
   18.1640   21.4093   23.3019 H   0  0  0  0  0  0  0  0  0  0  0  0
   19.7288   21.0080   21.8751 C   0  0  0  0  0  0  0  0  0  0  0  0
   19.0771   20.7344   21.0353 H   0  0  0  0  0  0  0  0  0  0  0  0
   19.8672   22.0939   21.7941 H   0  0  0  0  0  0  0  0  0  0  0  0
   21.1020   20.3260   21.6781 C   0  0  0  0  0  0  0  0  0  0  0  0
   21.3975   20.5028   20.6338 H   0  0  0  0  0  0  0  0  0  0  0  0
   21.1127   18.7926   21.8996 C   0  0  0  0  0  0  0  0  0  0  0  0
   20.3884   18.3122   21.2294 H   0  0  0  0  0  0  0  0  0  0  0  0
   22.0991   18.4267   21.5868 H   0  0  0  0  0  0  0  0  0  0  0  0
   20.8708   18.3358   23.3619 C   0  0  0  0  0  0  0  0  0  0  0  0
   21.3654   17.3672   23.5150 H   0  0  0  0  0  0  0  0  0  0  0  0
   21.3669   19.0271   24.0558 H   0  0  0  0  0  0  0  0  0  0  0  0
   22.0644   20.9493   22.5231 O   0  0  0  0  0  0  0  0  0  0  0  0
   22.0040   21.9119   22.3563 H   0  0  0  0  0  0  0  0  0  0  0  0
  1  2  1  0  0  0  0
  1  3  1  0  0  0  0
  1  4  1  0  0  0  0
  4  5  1  0  0  0  0
  4  6  1  0  0  0  0
  4  7  1  0  0  0  0
  7  8  1  0  0  0  0
  7  9  1  0  0  0  0
  7 10  1  0  0  0  0
 10 11  1  0  0  0  0
 10 12  1  0  0  0  0
 10 13  1  0  0  0  0
 13 14  1  0  0  0  0
 13 15  1  0  0  0  0
 15 16  1  0  0  0  0
 15 17  1  0  0  0  0
  1 18  1  0  0  0  0
 15 18  1  0  0  0  0
 18 19  1  0  0  0  0
 18 20  1  0  0  0  0
 13 21  1  0  0  0  0
 21 22  1  0  0  0  0
M  END
> <VConfSearch Rank>
997

> <Conf_Id>
41

> <Delta U+W>
-2.114

> <U+W>
4.310

> <U>
6.598

> <W>
-2.289

> <W(PB)>
-4.294

> <W(SA)>
2.005

> <Valence>
12.082

> <Coulomb>
-7.801

> <VdW>
2.317

> <VdW6>
-9.658

> <VdW12>
11.975

> <Bond>
0.267

> <Angle>
3.051

> <Pdih>
8.764

> <Idih>
0.000

> <Tether>
0.000

$$$$
VeraChem MOL file


 22 22  0  0  0  0  0  0  0  0999 V2000     
   21.5028   18.6998   22.4594 C   0  0  0  0  0  0  0  0  0  0  0  0
   22.4858   18.2160   22.5384 H   0  0  0  0  0  0  0  0  0  0  0  0
   20.9946   18.2272   21.6076 H   0  0  0  0  0  0  0  0  0  0  0  0
   21.7350   20.2036   22.1913 C   0  0  0  0  0  0  0  0  0  0  0  0
   22.1867   20.6695   23.0776 H   0  0  0  0  0  0  0  0  0  0  0  0
   22.4757   20.3063   21.3867 H   0  0  0  0  0  0  0  0  0  0  0  0
   20.4685   20.9888   21.7856 C   0  0  0  0  0  0  0  0  0  0  0  0
   20.1388   20.6615   20.7905 H   0  0  0  0  0  0  0  0  0  0  0  0
   20.7474   22.0447   21.6702 H   0  0  0  0  0  0  0  0  0  0  0  0
   19.2883   20.9025   22.7910 C   0  0  0  0  0  0  0  0  0  0  0  0
   19.6349   21.1549   23.8012 H   0  0  0  0  0  0  0  0  0  0  0  0
   18.5654   21.6834   22.5222 H   0  0  0  0  0  0  0  0  0  0  0  0
   18.5178   19.5574   22.8198 C   0  0  0  0  0  0  0  0  0  0  0  0
   17.5564   19.7552   23.3156 H   0  0  0  0  0  0  0  0  0  0  0  0
   19.1878   18.4106   23.6206 C   0  0  0  0  0  0  0  0  0  0  0  0
   18.7577   18.4066   24.6306 H   0  0  0  0  0  0  0  0  0  0  0  0
   18.8961   17.4484   23.1796 H   0  0  0  0  0  0  0  0  0  0  0  0
   20.7290   18.4398   23.7707 C   0  0  0  0  0  0  0  0  0  0  0  0
   21.0163   19.1840   24.5257 H   0  0  0  0  0  0  0  0  0  0  0  0
   21.0450   17.4699   24.1785 H   0  0  0  0  0  0  0  0  0  0  0  0
   18.2363   19.1159   21.4944 O   0  0  0  0  0  0  0  0  0  0  0  0
   17.7177   18.2898   21.5756 H   0  0  0  0  0  0  0  0  0  0  0  0
  1  2  1  0  0  0  0
  1  3  1  0  0  0  0
  1  4  1  0  0  0  0
  4  5  1  0  0  0  0
  4  6  1  0  0  0  0
  4  7  1  0  0  0  0
  7  8  1  0  0  0  0
  7  9  1  0  0  0  0
  7 10  1  0  0  0  0
 10 11  1  0  0  0  0
 10 12  1  0  0  0  0
 10 13  1  0  0  0  0
 13 14  1  0  0  0  0
 13 15  1  0  0  0  0
 15 16  1  0  0  0  0
 15 17  1  0  0  0  0
  1 18  1  0  0  0  0
 15 18  1  0  0  0  0
 18 19  1  0  0  0  0
 18 20  1  0  0  0  0
 13 21  1  0  0  0  0
 21 22  1  0  0  0  0
M  END
> <VConfSearch Rank>
998

> <Conf_Id>
104

> <Delta U+W>
-1.172

> <U+W>
5.252

> <U>
7.482

> <W>
-2.230

> <W(PB)>
-4.220

> <W(SA)>
1.990

> <Valence>
12.309

> <Coulomb>
-7.084

> <VdW>
2.258

> <VdW6>
-9.770

> <VdW12>
12.028

> <Bond>
0.284

> <Angle>
3.491

> <Pdih>
8.535

> <Idih>
0.000

> <Tether>
0.000

$$$$
VeraChem MOL file


 22 22  0  0  0  0  0  0  0  0999 V2000     
   21.5762   19.3168   23.2564 C   0  0  0  0  0  0  0  0  0  0  0  0
   21.9100   20.3422   23.0474 H   0  0  0  0  0  0  0  0  0  0  0  0
   22.4462   18.7962   23.6795 H   0  0  0  0  0  0  0  0  0  0  0  0
   21.1783   18.5890   21.9520 C   0  0  0  0  0  0  0  0  0  0  0  0
   22.0930   18.2468   21.4486 H   0  0  0  0  0  0  0  0  0  0  0  0
   20.6306   17.6705   22.2006 H   0  0  0  0  0  0  0  0  0  0  0  0
   20.3663   19.4301   20.9346 C   0  0  0  0  0  0  0  0  0  0  0  0
   19.7755   18.7455   20.3104 H   0  0  0  0  0  0  0  0  0  0  0  0
   21.0705   19.9172   20.2463 H   0  0  0  0  0  0  0  0  0  0  0  0
   19.4333   20.5318   21.5062 C   0  0  0  0  0  0  0  0  0  0  0  0
   20.0357   21.4105   21.7708 H   0  0  0  0  0  0  0  0  0  0  0  0
   18.7723   20.8692   20.6974 H   0  0  0  0  0  0  0  0  0  0  0  0
   18.5530   20.1503   22.7184 C   0  0  0  0  0  0  0  0  0  0  0  0
   17.7083   20.8536   22.7434 H   0  0  0  0  0  0  0  0  0  0  0  0
   19.2938   20.2938   24.0671 C   0  0  0  0  0  0  0  0  0  0  0  0
   19.6736   21.3202   24.1521 H   0  0  0  0  0  0  0  0  0  0  0  0
   18.5586   20.1830   24.8748 H   0  0  0  0  0  0  0  0  0  0  0  0
   20.4576   19.3050   24.3253 C   0  0  0  0  0  0  0  0  0  0  0  0
   20.9054   19.5588   25.2958 H   0  0  0  0  0  0  0  0  0  0  0  0
   20.0626   18.2866   24.4401 H   0  0  0  0  0  0  0  0  0  0  0  0
   18.0505   18.8308   22.5741 O   0  0  0  0  0  0  0  0  0  0  0  0
   18.8523   18.2797   22.4756 H   0  0  0  0  0  0  0  0  0  0  0  0
  1  2  1  0  0  0  0
  1  3  1  0  0  0  0
  1  4  1  0  0  0  0
  4  5  1  0  0  0  0
  4  6  1  0  0  0  0
  4  7  1  0  0  0  0
  7  8  1  0  0  0  0
  7  9  1  0  0  0  0
  7 10  1  0  0  0  0
 10 11  1  0  0  0  0
 10 12  1  0  0  0  0
 10 13  1  0  0  0  0
 13 14  1  0  0  0  0
 13 15  1  0  0  0  0
 15 16  1  0  0  0  0
 15 17  1  0  0  0  0
  1 18  1  0  0  0  0
 15 18  1  0  0  0  0
 18 19  1  0  0  0  0
 18 20  1  0  0  0  0
 13 21  1  0  0  0  0
 21 22  1  0  0  0  0
M  END
> <VConfSearch Rank>
999

> <Conf_Id>
99

> <Delta U+W>
-3.852

> <U+W>
2.572

> <U>
3.922

> <W>
-1.350

> <W(PB)>
-3.345

> <W(SA)>
1.995

> <Valence>
12.571

> <Coulomb>
-10.581

> <VdW>
1.932

> <VdW6>
-10.483

> <VdW12>
12.415

> <Bond>
0.268

> <Angle>
3.728

> <Pdih>
8.575

> <Idih>
0.000

> <Tether>
0.000

$$$$
VeraChem MOL file


 22 22  0  0  0  0  0  0  0  0999 V2000     
   20.3748   21.1000   22.0312 C   0  0  0  0  0  0  0  0  0  0  0  0
   21.0429   21.8411   21.5709 H   0  0  0  0  0  0  0  0  0  0  0  0
   19.3962   21.5955   22.0843 H   0  0  0  0  0  0  0  0  0  0  0  0
   20.9051   20.8047   23.4649 C   0  0  0  0  0  0  0  0  0  0  0  0
   21.8026   21.4181   23.6251 H   0  0  0  0  0  0  0  0  0  0  0  0
   20.1842   21.1566   24.2149 H   0  0  0  0  0  0  0  0  0  0  0  0
   21.2822   19.3303   23.7590 C   0  0  0  0  0  0  0  0  0  0  0  0
   21.8160   19.2940   24.7184 H   0  0  0  0  0  0  0  0  0  0  0  0
   22.0161   18.9816   23.0219 H   0  0  0  0  0  0  0  0  0  0  0  0
   20.0983   18.3266   23.8357 C   0  0  0  0  0  0  0  0  0  0  0  0
   20.4910   17.3184   23.6514 H   0  0  0  0  0  0  0  0  0  0  0  0
   19.7255   18.3084   24.8685 H   0  0  0  0  0  0  0  0  0  0  0  0
   18.8823   18.5566   22.9048 C   0  0  0  0  0  0  0  0  0  0  0  0
   18.2747   17.6409   22.9410 H   0  0  0  0  0  0  0  0  0  0  0  0
   19.2021   18.8257   21.4137 C   0  0  0  0  0  0  0  0  0  0  0  0
   19.4886   17.8764   20.9431 H   0  0  0  0  0  0  0  0  0  0  0  0
   18.2654   19.1217   20.9227 H   0  0  0  0  0  0  0  0  0  0  0  0
   20.2892   19.8831   21.0749 C   0  0  0  0  0  0  0  0  0  0  0  0
   21.2701   19.3967   21.0057 H   0  0  0  0  0  0  0  0  0  0  0  0
   20.0926   20.2536   20.0596 H   0  0  0  0  0  0  0  0  0  0  0  0
   18.0825   19.6103   23.4179 O   0  0  0  0  0  0  0  0  0  0  0  0
   18.6635   20.3955   23.3646 H   0  0  0  0  0  0  0  0  0  0  0  0
  1  2  1  0  0  0  0
  1  3  1  0  0  0  0
  1  4  1  0  0  0  0
  4  5  1  0  0  0  0
  4  6  1  0  0  0  0
  4  7  1  0  0  0  0
  7  8  1  0  0  0  0
  7  9  1  0  0  0  0
  7 10  1  0  0  0  0
 10 11  1  0  0  0  0
 10 12  1  0  0  0  0
 10 13  1  0  0  0  0
 13 14  1  0  0  0  0
 13 15  1  0  0  0  0
 15 16  1  0  0  0  0
 15 17  1  0  0  0  0
  1 18  1  0  0  0  0
 15 18  1  0  0  0  0
 18 19  1  0  0  0  0
 18 20  1  0  0  0  0
 13 21  1  0  0  0  0
 21 22  1  0  0  0  0
M  END
> <VConfSearch Rank>
1000

> <Conf_Id>
98

> <Delta U+W>
0.930

> <U+W>
7.353

> <U>
8.455

> <W>
-1.102

> <W(PB)>
-3.101

> <W(SA)>
2.000

> <Valence>
15.601

> <Coulomb>
-10.573

> <VdW>
3.427

> <VdW6>
-11.360

> <VdW12>
14.787

> <Bond>
0.471

> <Angle>
5.445

> <Pdih>
9.685

> <Idih>
0.000

> <Tether>
0.000

$$$$
