@<TRIPOS>MOLECULE
MOL
  126   132     1     0     0
SMALL
gas


@<TRIPOS>ATOM
      1 C1           0.1160     0.8150     0.5440 c3         1 MOL       0.186719
      2 C2          -0.6140     2.1390     0.2650 c3         1 MOL       0.133273
      3 C3          -1.3540     2.0240    -1.0730 c3         1 MOL       0.113742
      4 C4          -0.3770     1.6280    -2.1750 c3         1 MOL       0.117858
      5 C5           0.3680     0.3400    -1.7860 c3         1 MOL       0.112687
      6 C6           1.4770    -0.0260    -2.7780 c3         1 MOL       0.072138
      7 O1          -0.8890    -0.1710     0.5990 os         1 MOL      -0.340972
      8 O2          -1.5650     2.4560     1.2650 oh         1 MOL      -0.384992
      9 O3          -2.0040     3.2330    -1.4310 oh         1 MOL      -0.387390
     10 O4           0.9920     0.5110    -0.5230 os         1 MOL      -0.341376
     11 O5           2.4450    -0.8490    -2.1490 oh         1 MOL      -0.393576
     12 C7          -2.0710    -3.5150     2.6800 c3         1 MOL       0.186719
     13 C8          -2.4700    -2.1580     3.2820 c3         1 MOL       0.133273
     14 C9          -2.3060    -1.0730     2.2100 c3         1 MOL       0.113742
     15 C10         -0.8830    -1.0960     1.6610 c3         1 MOL       0.117858
     16 C11         -0.5340    -2.5050     1.1510 c3         1 MOL       0.112687
     17 C12          0.9320    -2.6370     0.7300 c3         1 MOL       0.072138
     18 O6          -2.9500    -3.7270     1.5990 os         1 MOL      -0.340972
     19 O7          -3.8140    -2.1340     3.7260 oh         1 MOL      -0.384992
     20 O8          -2.5970     0.2230     2.7100 oh         1 MOL      -0.387390
     21 O9          -0.7490    -3.4550     2.1830 os         1 MOL      -0.341376
     22 O10          1.3370    -3.9940     0.7830 oh         1 MOL      -0.393576
     23 C13         -5.2080    -6.6220    -0.2520 c3         1 MOL       0.186719
     24 C14         -5.8440    -5.9340     0.9670 c3         1 MOL       0.133273
     25 C15         -5.0620    -4.6510     1.2750 c3         1 MOL       0.113742
     26 C16         -3.5850    -4.9770     1.4680 c3         1 MOL       0.117858
     27 C17         -3.0440    -5.7320     0.2420 c3         1 MOL       0.112687
     28 C18         -1.6070    -6.2280     0.4360 c3         1 MOL       0.072138
     29 O11         -5.3070    -5.6950    -1.3090 os         1 MOL      -0.340972
     30 O12         -7.1960    -5.5780     0.7450 oh         1 MOL      -0.384992
     31 O13         -5.5530    -3.9890     2.4310 oh         1 MOL      -0.387390
     32 O14         -3.8410    -6.8810    -0.0030 os         1 MOL      -0.341376
     33 O15         -1.3450    -7.3220    -0.4270 oh         1 MOL      -0.393576
     34 C19         -6.1600    -5.3990    -5.3210 c3         1 MOL       0.186719
     35 C20         -7.3640    -5.4100    -4.3640 c3         1 MOL       0.133273
     36 C21         -6.8680    -5.1290    -2.9410 c3         1 MOL       0.113742
     37 C22         -5.7840    -6.1320    -2.5600 c3         1 MOL       0.117858
     38 C23         -4.6560    -6.1160    -3.6050 c3         1 MOL       0.112687
     39 C24         -3.6110    -7.2120    -3.3680 c3         1 MOL       0.072138
     40 O16         -5.6030    -4.1080    -5.2180 os         1 MOL      -0.340972
     41 O17         -8.3280    -4.4270    -4.6930 oh         1 MOL      -0.384992
     42 O18         -7.9170    -5.1840    -1.9870 oh         1 MOL      -0.387390
     43 O19         -5.1970    -6.3430    -4.8980 os         1 MOL      -0.341376
     44 O20         -2.9290    -7.5090    -4.5740 oh         1 MOL      -0.393576
     45 C25         -3.9680    -1.0720    -7.4590 c3         1 MOL       0.186719
     46 C26         -5.5030    -1.1160    -7.3820 c3         1 MOL       0.133273
     47 C27         -5.9150    -2.0320    -6.2230 c3         1 MOL       0.113742
     48 C28         -5.2790    -3.4080    -6.3960 c3         1 MOL       0.117858
     49 C29         -3.7540    -3.2720    -6.5440 c3         1 MOL       0.112687
     50 C30         -3.0700    -4.6010    -6.8790 c3         1 MOL       0.072138
     51 O21         -3.5380    -0.5560    -6.2200 os         1 MOL      -0.340972
     52 O22         -6.0720     0.1600    -7.1540 oh         1 MOL      -0.384992
     53 O23         -7.3240    -2.1730    -6.1260 oh         1 MOL      -0.387390
     54 O24         -3.4530    -2.3810    -7.6070 os         1 MOL      -0.341376
     55 O25         -1.8240    -4.3650    -7.5120 oh         1 MOL      -0.393576
     56 C31         -0.8270     2.0310    -4.5280 c3         1 MOL       0.186719
     57 C32         -2.1230     2.6560    -5.0690 c3         1 MOL       0.133273
     58 C33         -3.1550     1.5440    -5.2910 c3         1 MOL       0.113742
     59 C34         -2.5730     0.4700    -6.2050 c3         1 MOL       0.117858
     60 C35         -1.2420    -0.0480    -5.6340 c3         1 MOL       0.112687
     61 C36         -0.5270    -1.0150    -6.5830 c3         1 MOL       0.072138
     62 O26         -1.1800     1.4120    -3.3120 os         1 MOL      -0.340972
     63 O27         -2.6840     3.6020    -4.1770 oh         1 MOL      -0.384992
     64 O28         -4.3620     2.0360    -5.8510 oh         1 MOL      -0.387390
     65 O29         -0.3560     1.0410    -5.4200 os         1 MOL      -0.341376
     66 O30          0.8620    -1.0440    -6.2990 oh         1 MOL      -0.393576
     67 H1           0.6800     0.8820     1.4770 h2         1 MOL       0.095315
     68 H2           0.1140     2.9500     0.2230 h1         1 MOL       0.068376
     69 H3          -2.1110     1.2330    -1.0190 h1         1 MOL       0.065913
     70 H4           0.3330     2.4410    -2.3300 h1         1 MOL       0.066225
     71 H5          -0.3330    -0.4940    -1.7320 h1         1 MOL       0.065815
     72 H6           1.9660     0.8660    -3.1820 h1         1 MOL       0.059240
     73 H7           1.0600    -0.5700    -3.6260 h1         1 MOL       0.059240
     74 H8          -1.9880     1.6370     1.5460 ho         1 MOL       0.210855
     75 H9          -2.4570     3.5520    -0.6460 ho         1 MOL       0.210729
     76 H10          2.6840    -0.4360    -1.3160 ho         1 MOL       0.210178
     77 H11         -2.1470    -4.3010     3.4340 h2         1 MOL       0.095315
     78 H12         -1.8280    -1.9400     4.1380 h1         1 MOL       0.068376
     79 H13         -2.9760    -1.2720     1.3670 h1         1 MOL       0.065913
     80 H14         -0.1910    -0.8000     2.4510 h1         1 MOL       0.066225
     81 H15         -1.1610    -2.7560     0.2940 h1         1 MOL       0.065815
     82 H16          1.5900    -2.0370     1.3670 h1         1 MOL       0.059240
     83 H17          1.0660    -2.2770    -0.2910 h1         1 MOL       0.059240
     84 H18         -4.3440    -2.6410     3.1010 ho         1 MOL       0.210855
     85 H19         -3.4100     0.1520     3.2160 ho         1 MOL       0.210729
     86 H20          1.0640    -4.3490     1.6330 ho         1 MOL       0.210178
     87 H21         -5.7270    -7.5570    -0.4720 h2         1 MOL       0.095315
     88 H22         -5.8090    -6.6100     1.8220 h1         1 MOL       0.068376
     89 H23         -5.1270    -3.9560     0.4310 h1         1 MOL       0.065913
     90 H24         -3.4680    -5.5860     2.3660 h1         1 MOL       0.066225
     91 H25         -3.0670    -5.0830    -0.6350 h1         1 MOL       0.065815
     92 H26         -1.4230    -6.5300     1.4720 h1         1 MOL       0.059240
     93 H27         -0.8990    -5.4310     0.2080 h1         1 MOL       0.059240
     94 H28         -7.2820    -5.2800    -0.1670 ho         1 MOL       0.210855
     95 H29         -6.5100    -3.9740     2.3600 ho         1 MOL       0.210729
     96 H30         -2.0680    -7.9470    -0.3370 ho         1 MOL       0.210178
     97 H31         -6.4820    -5.6300    -6.3380 h2         1 MOL       0.095315
     98 H32         -7.8490    -6.3860    -4.4070 h1         1 MOL       0.068376
     99 H33         -6.4120    -4.1340    -2.8890 h1         1 MOL       0.065913
    100 H34         -6.2260    -7.1280    -2.4990 h1         1 MOL       0.066225
    101 H35         -4.1490    -5.1500    -3.5910 h1         1 MOL       0.065815
    102 H36         -4.0690    -8.1250    -2.9750 h1         1 MOL       0.059240
    103 H37         -2.8790    -6.8810    -2.6300 h1         1 MOL       0.059240
    104 H38         -7.8620    -3.6370    -4.9890 ho         1 MOL       0.210855
    105 H39         -8.6570    -4.6940    -2.3550 ho         1 MOL       0.210729
    106 H40         -3.5890    -7.6370    -5.2610 ho         1 MOL       0.210178
    107 H41         -3.6490    -0.4530    -8.2980 h2         1 MOL       0.095315
    108 H42         -5.9010    -1.4990    -8.3230 h1         1 MOL       0.068376
    109 H43         -5.5470    -1.6290    -5.2730 h1         1 MOL       0.065913
    110 H44         -5.7020    -3.8870    -7.2810 h1         1 MOL       0.066225
    111 H45         -3.3230    -2.8870    -5.6190 h1         1 MOL       0.065815
    112 H46         -3.6950    -5.2230    -7.5270 h1         1 MOL       0.059240
    113 H47         -2.8910    -5.1730    -5.9680 h1         1 MOL       0.059240
    114 H48         -5.4990     0.6380    -6.5440 ho         1 MOL       0.210855
    115 H49         -7.7000    -1.2940    -6.2140 ho         1 MOL       0.210729
    116 H50         -1.9680    -3.7270    -8.2150 ho         1 MOL       0.210178
    117 H51         -0.0630     2.7990    -4.3930 h2         1 MOL       0.095315
    118 H52         -1.9120     3.1650    -6.0110 h1         1 MOL       0.068376
    119 H53         -3.3940     1.0560    -4.3390 h1         1 MOL       0.065913
    120 H54         -2.4170     0.8940    -7.1980 h1         1 MOL       0.066225
    121 H55         -1.4170    -0.5620    -4.6880 h1         1 MOL       0.065815
    122 H56         -0.6770    -0.7370    -7.6310 h1         1 MOL       0.059240
    123 H57         -0.9240    -2.0230    -6.4640 h1         1 MOL       0.059240
    124 H58         -2.5590     3.2760    -3.2790 ho         1 MOL       0.210855
    125 H59         -4.5940     2.8300    -5.3630 ho         1 MOL       0.210729
    126 H60          1.1690    -0.1360    -6.2430 ho         1 MOL       0.210178
@<TRIPOS>BOND
     1     1    67 1   
     2     1     2 1   
     3     1     7 1   
     4     1    10 1   
     5     2     8 1   
     6     2    68 1   
     7     2     3 1   
     8     3     9 1   
     9     3    69 1   
    10     3     4 1   
    11     4    62 1   
    12     4     5 1   
    13     4    70 1   
    14     5     6 1   
    15     5    10 1   
    16     5    71 1   
    17     6    11 1   
    18     6    72 1   
    19     6    73 1   
    20     7    15 1   
    21     8    74 1   
    22     9    75 1   
    23    11    76 1   
    24    12    13 1   
    25    12    21 1   
    26    12    77 1   
    27    12    18 1   
    28    13    14 1   
    29    13    78 1   
    30    13    19 1   
    31    14    20 1   
    32    14    79 1   
    33    14    15 1   
    34    15    16 1   
    35    15    80 1   
    36    16    81 1   
    37    16    17 1   
    38    16    21 1   
    39    17    82 1   
    40    17    22 1   
    41    17    83 1   
    42    18    26 1   
    43    19    84 1   
    44    20    85 1   
    45    22    86 1   
    46    23    29 1   
    47    23    32 1   
    48    23    87 1   
    49    23    24 1   
    50    24    30 1   
    51    24    25 1   
    52    24    88 1   
    53    25    26 1   
    54    25    89 1   
    55    25    31 1   
    56    26    27 1   
    57    26    90 1   
    58    27    28 1   
    59    27    91 1   
    60    27    32 1   
    61    28    92 1   
    62    28    93 1   
    63    28    33 1   
    64    29    37 1   
    65    30    94 1   
    66    31    95 1   
    67    33    96 1   
    68    34    97 1   
    69    34    40 1   
    70    34    35 1   
    71    34    43 1   
    72    35    98 1   
    73    35    41 1   
    74    35    36 1   
    75    36    99 1   
    76    36    42 1   
    77    36    37 1   
    78    37   100 1   
    79    37    38 1   
    80    38    43 1   
    81    38   101 1   
    82    38    39 1   
    83    39   102 1   
    84    39   103 1   
    85    39    44 1   
    86    40    48 1   
    87    41   104 1   
    88    42   105 1   
    89    44   106 1   
    90    45   107 1   
    91    45    46 1   
    92    45    54 1   
    93    45    51 1   
    94    46   108 1   
    95    46    52 1   
    96    46    47 1   
    97    47    53 1   
    98    47    48 1   
    99    47   109 1   
   100    48    49 1   
   101    48   110 1   
   102    49   111 1   
   103    49    50 1   
   104    49    54 1   
   105    50   113 1   
   106    50    55 1   
   107    50   112 1   
   108    51    59 1   
   109    52   114 1   
   110    53   115 1   
   111    55   116 1   
   112    56   117 1   
   113    56    57 1   
   114    56    65 1   
   115    56    62 1   
   116    57    63 1   
   117    57    58 1   
   118    57   118 1   
   119    58   119 1   
   120    58    64 1   
   121    58    59 1   
   122    59    60 1   
   123    59   120 1   
   124    60    61 1   
   125    60    65 1   
   126    60   121 1   
   127    61    66 1   
   128    61   123 1   
   129    61   122 1   
   130    63   124 1   
   131    64   125 1   
   132    66   126 1   
@<TRIPOS>SUBSTRUCTURE
     1 MOL         1 TEMP              0 ****  ****    0 ROOT
