@<TRIPOS>MOLECULE
CD_guest-s17_fast_vm2_single.mol2 : feprocess host+ligand conformer 1
         151         157           2
SMALL
USER_CHARGES
 
@<TRIPOS>ATOM
       1    C1      16.163855   15.096144   21.448219 C.3        1 MOL1         0.2972
       2    H1      15.087463   14.890685   21.388302 H          1 MOL1         0.0751
       3    O1      16.424501   16.507754   21.565518 O.3        1 MOL1        -0.3740
       4    C2      16.752478   14.406689   22.698433 C.3        1 MOL1         0.1003
       5    H2      16.570024   13.328996   22.595197 H          1 MOL1         0.0783
       6    O2      16.098162   14.887310   23.883420 O.3        1 MOL1        -0.5519
       7    H3      15.868742   15.832597   23.710808 H          1 MOL1         0.3769
       8    C3      18.281530   14.624690   22.799747 C.3        1 MOL1         0.1053
       9    H4      18.463589   15.687544   23.013958 H          1 MOL1         0.0783
      10    O3      18.762343   13.809587   23.874951 O.3        1 MOL1        -0.5519
      11    H5      18.082929   13.903436   24.581840 H          1 MOL1         0.3769
      12    C4      19.005470   14.268579   21.470016 C.3        1 MOL1         0.1018
      13    H6      19.061404   13.177095   21.373875 H          1 MOL1         0.0783
      14    C5      18.271565   14.851233   20.230176 C.3        1 MOL1         0.1043
      15    H7      18.425742   15.936726   20.237161 H          1 MOL1         0.0783
      16    O4      16.847992   14.579533   20.288940 O.3        1 MOL1        -0.3740
      17    C6      18.815115   14.311145   18.883299 C.3        1 MOL1         0.0138
      18    H8      19.828760   14.702642   18.728175 H          1 MOL1         0.0794
      19    H9      18.188847   14.703095   18.071220 H          1 MOL1         0.0794
      20    O5      18.840564   12.879529   18.833297 O.3        1 MOL1        -0.5486
      21    H10     19.580306   12.576141   19.401375 H          1 MOL1         0.3769
      22    C7      14.829062   20.225998   20.506581 C.3        1 MOL1         0.2972
      23    H11     14.182560   21.019808   20.113251 H          1 MOL1         0.0751
      24    O6      16.113130   20.743711   20.913457 O.3        1 MOL1        -0.3740
      25    C8      14.156150   19.514209   21.710287 C.3        1 MOL1         0.1003
      26    H12     13.215271   19.083305   21.343868 H          1 MOL1         0.0783
      27    O7      13.857907   20.434178   22.770998 O.3        1 MOL1        -0.5519
      28    H13     14.700650   20.898446   23.007845 H          1 MOL1         0.3769
      29    C9      15.038716   18.348580   22.220537 C.3        1 MOL1         0.1053
      30    H14     15.970162   18.769663   22.624235 H          1 MOL1         0.0783
      31    O8      14.341075   17.632279   23.245829 O.3        1 MOL1        -0.5519
      32    H15     13.965206   18.325470   23.832770 H          1 MOL1         0.3769
      33    C10     15.400207   17.387138   21.061403 C.3        1 MOL1         0.1018
      34    H16     14.492633   16.840962   20.773101 H          1 MOL1         0.0783
      35    C11     15.957137   18.154776   19.830236 C.3        1 MOL1         0.1043
      36    H17     16.930712   18.571308   20.111052 H          1 MOL1         0.0783
      37    O9      15.052187   19.232744   19.484631 O.3        1 MOL1        -0.3740
      38    C12     16.169475   17.293795   18.559531 C.3        1 MOL1         0.0138
      39    H18     17.161527   16.835848   18.611354 H          1 MOL1         0.0794
      40    H19     16.172175   17.957369   17.684634 H          1 MOL1         0.0794
      41    O10     15.182885   16.269010   18.396937 O.3        1 MOL1        -0.5486
      42    H20     15.486255   15.500627   18.933078 H          1 MOL1         0.3769
      43    C13     18.384766   24.148212   21.377705 C.3        1 MOL1         0.2972
      44    H21     18.806128   25.157783   21.465974 H          1 MOL1         0.0751
      45    O11     19.426777   23.160175   21.193333 O.3        1 MOL1        -0.3740
      46    C14     17.510891   23.797114   22.610544 C.3        1 MOL1         0.1003
      47    H22     16.652083   24.481007   22.597418 H          1 MOL1         0.0783
      48    O12     18.211175   23.976216   23.849410 O.3        1 MOL1        -0.5519
      49    H23     18.924198   23.290226   23.870064 H          1 MOL1         0.3769
      50    C15     16.965912   22.354799   22.479212 C.3        1 MOL1         0.1053
      51    H24     17.814936   21.657956   22.493201 H          1 MOL1         0.0783
      52    O13     16.095365   22.079957   23.580875 O.3        1 MOL1        -0.5519
      53    H25     16.570895   22.417186   24.372831 H          1 MOL1         0.3769
      54    C16     16.203462   22.166508   21.141782 C.3        1 MOL1         0.1018
      55    H26     15.213295   22.627922   21.247586 H          1 MOL1         0.0783
      56    C17     16.951083   22.783785   19.920676 C.3        1 MOL1         0.1043
      57    H27     17.778968   22.118700   19.661567 H          1 MOL1         0.0783
      58    O14     17.498313   24.088285   20.240025 O.3        1 MOL1        -0.3740
      59    C18     16.074999   22.917087   18.651685 C.3        1 MOL1         0.0138
      60    H28     15.806786   21.911960   18.298748 H          1 MOL1         0.0794
      61    H29     16.681327   23.382578   17.863329 H          1 MOL1         0.0794
      62    O15     14.891477   23.694899   18.877238 O.3        1 MOL1        -0.5486
      63    H30     14.284784   23.179885   19.447073 H          1 MOL1         0.3769
      64    C19     23.478148   22.442973   22.049334 C.3        1 MOL1         0.2972
      65    H31     24.503162   22.538471   22.427968 H          1 MOL1         0.0751
      66    O16     23.372349   21.386067   21.068554 O.3        1 MOL1        -0.3740
      67    C20     22.480907   22.183784   23.214049 C.3        1 MOL1         0.1003
      68    H32     22.545782   23.050389   23.885097 H          1 MOL1         0.0783
      69    O17     22.788195   20.999383   23.965197 O.3        1 MOL1        -0.5519
      70    H33     23.757836   20.841835   23.876117 H          1 MOL1         0.3769
      71    C21     21.032839   22.102185   22.682640 C.3        1 MOL1         0.1053
      72    H34     20.964473   21.240911   22.005404 H          1 MOL1         0.0783
      73    O18     20.157652   21.913652   23.796784 O.3        1 MOL1        -0.5519
      74    H35     20.612817   21.232713   24.344050 H          1 MOL1         0.3769
      75    C22     20.673817   23.385618   21.890236 C.3        1 MOL1         0.1018
      76    H36     20.599103   24.224474   22.594848 H          1 MOL1         0.0783
      77    C23     21.758365   23.703605   20.821684 C.3        1 MOL1         0.1043
      78    H37     21.712904   22.932448   20.043638 H          1 MOL1         0.0783
      79    O19     23.079728   23.681716   21.420769 O.3        1 MOL1        -0.3740
      80    C24     21.554866   25.073610   20.131708 C.3        1 MOL1         0.0138
      81    H38     20.670799   25.007815   19.482948 H          1 MOL1         0.0794
      82    H39     22.420350   25.272876   19.485713 H          1 MOL1         0.0794
      83    O20     21.383555   26.135827   21.078923 O.3        1 MOL1        -0.5486
      84    H40     21.334498   26.977978   20.576080 H          1 MOL1         0.3769
      85    C25     25.118006   17.682381   20.427595 C.3        1 MOL1         0.2972
      86    H41     25.749283   16.828890   20.152214 H          1 MOL1         0.0751
      87    O21     23.754452   17.259976   20.676754 O.3        1 MOL1        -0.3740
      88    C26     25.714770   18.439819   21.642989 C.3        1 MOL1         0.1003
      89    H42     26.685434   18.837686   21.318560 H          1 MOL1         0.0783
      90    O22     25.933252   17.585640   22.775130 O.3        1 MOL1        -0.5519
      91    H43     25.037132   17.376304   23.141574 H          1 MOL1         0.3769
      92    C27     24.822843   19.642078   22.030219 C.3        1 MOL1         0.1053
      93    H44     23.856917   19.251120   22.372668 H          1 MOL1         0.0783
      94    O23     25.476554   20.354742   23.087938 O.3        1 MOL1        -0.5519
      95    H45     25.902302   19.658364   23.638947 H          1 MOL1         0.3769
      96    C28     24.547193   20.574939   20.816288 C.3        1 MOL1         0.1018
      97    H46     25.428959   21.204649   20.644840 H          1 MOL1         0.0783
      98    C29     24.220319   19.778397   19.519947 C.3        1 MOL1         0.1043
      99    H47     23.193865   19.409989   19.616053 H          1 MOL1         0.0783
     100    O24     25.101114   18.639057   19.348796 O.3        1 MOL1        -0.3740
     101    C30     24.283637   20.643095   18.236225 C.3        1 MOL1         0.0138
     102    H48     23.475044   21.385067   18.268781 H          1 MOL1         0.0794
     103    H49     24.094744   19.994312   17.370642 H          1 MOL1         0.0794
     104    O25     25.543258   21.309073   18.082290 O.3        1 MOL1        -0.5486
     105    H50     25.568781   22.052627   18.721322 H          1 MOL1         0.3769
     106    C31     21.366278   14.184578   22.191500 C.3        1 MOL1         0.2972
     107    H51     20.989569   13.269967   22.666640 H          1 MOL1         0.0751
     108    O26     20.325902   14.861605   21.456346 O.3        1 MOL1        -0.3740
     109    C32     21.974129   15.138707   23.255006 C.3        1 MOL1         0.1003
     110    H52     22.799818   14.593211   23.730397 H          1 MOL1         0.0783
     111    O27     21.029930   15.515751   24.268957 O.3        1 MOL1        -0.5519
     112    H53     20.291223   14.862501   24.233639 H          1 MOL1         0.3769
     113    C33     22.562426   16.406803   22.598902 C.3        1 MOL1         0.1053
     114    H54     21.733398   16.992434   22.177273 H          1 MOL1         0.0783
     115    O28     23.229018   17.156071   23.618933 O.3        1 MOL1        -0.5519
     116    H55     22.570491   17.212640   24.348175 H          1 MOL1         0.3769
     117    C34     23.548161   16.054660   21.454545 C.3        1 MOL1         0.1018
     118    H56     24.480024   15.689014   21.901719 H          1 MOL1         0.0783
     119    C35     22.980887   14.961145   20.504356 C.3        1 MOL1         0.1043
     120    H57     22.185408   15.410422   19.902249 H          1 MOL1         0.0783
     121    O29     22.426267   13.857103   21.266145 O.3        1 MOL1        -0.3740
     122    C36     24.031215   14.394570   19.518229 C.3        1 MOL1         0.0138
     123    H58     24.338850   15.195353   18.832173 H          1 MOL1         0.0794
     124    H59     23.549944   13.617230   18.910026 H          1 MOL1         0.0794
     125    O30     25.178246   13.849746   20.185104 O.3        1 MOL1        -0.5486
     126    H60     25.650511   14.578648   20.637141 H          1 MOL1         0.3769
     127    C1      19.299535   19.436674   16.503972 C.3        1 MOL1        -0.1684
     128    H1      18.498869   18.995397   17.107342 H          1 MOL1         0.0833
     129    H2      18.854370   19.569771   15.508806 H          1 MOL1         0.0833
     130    C2      20.474280   18.438472   16.351915 C.3        1 MOL1        -0.1684
     131    H3      20.078793   17.532181   15.873689 H          1 MOL1         0.0833
     132    H4      21.210458   18.849906   15.648402 H          1 MOL1         0.0833
     133    C3      21.204153   18.012310   17.649667 C.3        1 MOL1        -0.1684
     134    H5      21.937394   18.769447   17.934545 H          1 MOL1         0.0833
     135    H6      21.802272   17.121630   17.414410 H          1 MOL1         0.0833
     136    C4      20.274289   17.674319   18.842973 C.3        1 MOL1        -0.1760
     137    H7      19.282002   17.387206   18.485964 H          1 MOL1         0.0833
     138    H8      20.674693   16.784104   19.334710 H          1 MOL1         0.0833
     139    C5      20.158684   18.759130   19.938358 C.3        1 MOL1         0.1219
     140    H9      21.168995   19.012100   20.286465 H          1 MOL1         0.0790
     141    C6      19.436660   20.062371   19.528016 C.3        1 MOL1        -0.1760
     142    H10     18.420813   19.848967   19.181348 H          1 MOL1         0.0833
     143    H11     19.312146   20.654863   20.441273 H          1 MOL1         0.0833
     144    C7      20.185861   20.940857   18.493999 C.3        1 MOL1        -0.1684
     145    H12     21.260923   20.744071   18.536299 H          1 MOL1         0.0833
     146    H13     20.080181   21.990038   18.796750 H          1 MOL1         0.0833
     147    C8      19.664133   20.844698   17.037546 C.3        1 MOL1        -0.1684
     148    H14     20.397543   21.308990   16.364791 H          1 MOL1         0.0833
     149    H15     18.760718   21.465212   16.965343 H          1 MOL1         0.0833
     150    O1      19.434113   18.193025   21.022042 O.3        1 MOL1        -0.5508
     151    H16     19.434074   18.849118   21.744950 H          1 MOL1         0.3780
@<TRIPOS>BOND
    1     1     2    1
    2     1     3    1
    3     1     4    1
    4     4     5    1
    5     4     6    1
    6     6     7    1
    7     4     8    1
    8     8     9    1
    9     8    10    1
   10    10    11    1
   11     8    12    1
   12    12    13    1
   13    12    14    1
   14    14    15    1
   15     1    16    1
   16    14    16    1
   17    14    17    1
   18    17    18    1
   19    17    19    1
   20    17    20    1
   21    20    21    1
   22    22    23    1
   23    22    24    1
   24    22    25    1
   25    25    26    1
   26    25    27    1
   27    27    28    1
   28    25    29    1
   29    29    30    1
   30    29    31    1
   31    31    32    1
   32     3    33    1
   33    29    33    1
   34    33    34    1
   35    33    35    1
   36    35    36    1
   37    22    37    1
   38    35    37    1
   39    35    38    1
   40    38    39    1
   41    38    40    1
   42    38    41    1
   43    41    42    1
   44    43    44    1
   45    43    45    1
   46    43    46    1
   47    46    47    1
   48    46    48    1
   49    48    49    1
   50    46    50    1
   51    50    51    1
   52    50    52    1
   53    52    53    1
   54    24    54    1
   55    50    54    1
   56    54    55    1
   57    54    56    1
   58    56    57    1
   59    43    58    1
   60    56    58    1
   61    56    59    1
   62    59    60    1
   63    59    61    1
   64    59    62    1
   65    62    63    1
   66    64    65    1
   67    64    66    1
   68    64    67    1
   69    67    68    1
   70    67    69    1
   71    69    70    1
   72    67    71    1
   73    71    72    1
   74    71    73    1
   75    73    74    1
   76    45    75    1
   77    71    75    1
   78    75    76    1
   79    75    77    1
   80    77    78    1
   81    64    79    1
   82    77    79    1
   83    77    80    1
   84    80    81    1
   85    80    82    1
   86    80    83    1
   87    83    84    1
   88    85    86    1
   89    85    87    1
   90    85    88    1
   91    88    89    1
   92    88    90    1
   93    90    91    1
   94    88    92    1
   95    92    93    1
   96    92    94    1
   97    94    95    1
   98    66    96    1
   99    92    96    1
  100    96    97    1
  101    96    98    1
  102    98    99    1
  103    85   100    1
  104    98   100    1
  105    98   101    1
  106   101   102    1
  107   101   103    1
  108   101   104    1
  109   104   105    1
  110   106   107    1
  111    12   108    1
  112   106   108    1
  113   106   109    1
  114   109   110    1
  115   109   111    1
  116   111   112    1
  117   109   113    1
  118   113   114    1
  119   113   115    1
  120   115   116    1
  121    87   117    1
  122   113   117    1
  123   117   118    1
  124   117   119    1
  125   119   120    1
  126   106   121    1
  127   119   121    1
  128   119   122    1
  129   122   123    1
  130   122   124    1
  131   122   125    1
  132   125   126    1
  133   127   128    1
  134   127   129    1
  135   127   130    1
  136   130   131    1
  137   130   132    1
  138   130   133    1
  139   133   134    1
  140   133   135    1
  141   133   136    1
  142   136   137    1
  143   136   138    1
  144   136   139    1
  145   139   140    1
  146   139   141    1
  147   141   142    1
  148   141   143    1
  149   141   144    1
  150   144   145    1
  151   144   146    1
  152   127   147    1
  153   144   147    1
  154   147   148    1
  155   147   149    1
  156   139   150    1
  157   150   151    1
@<TRIPOS>SUBSTRUCTURE
       1 MOL1            1 RESIDUE      1      MOL     
       2 MOL1          151 RESIDUE      1      MOL     
@<SCITEGIC>MOL_PROPERTY
feprocess Rank
SciTegic.value.IntegerValue
1

@<SCITEGIC>MOL_PROPERTY
Conf_Id
SciTegic.value.IntegerValue
1

@<SCITEGIC>MOL_PROPERTY
Probability
SciTegic.value.DoubleValue
100.00

@<SCITEGIC>MOL_PROPERTY
G
SciTegic.value.DoubleValue
595.688

@<SCITEGIC>MOL_PROPERTY
E
SciTegic.value.DoubleValue
392.016

@<SCITEGIC>MOL_PROPERTY
-TS
SciTegic.value.DoubleValue
203.672

@<SCITEGIC>MOL_PROPERTY
U+W
SciTegic.value.DoubleValue
258.774

@<SCITEGIC>MOL_PROPERTY
U
SciTegic.value.DoubleValue
297.917

@<SCITEGIC>MOL_PROPERTY
W
SciTegic.value.DoubleValue
-39.143

@<SCITEGIC>MOL_PROPERTY
W(PB)
SciTegic.value.DoubleValue
-45.332

@<SCITEGIC>MOL_PROPERTY
W(SA)
SciTegic.value.DoubleValue
6.189

@<SCITEGIC>MOL_PROPERTY
Valence
SciTegic.value.DoubleValue
162.939

@<SCITEGIC>MOL_PROPERTY
Coulomb
SciTegic.value.DoubleValue
156.782

@<SCITEGIC>MOL_PROPERTY
VdW
SciTegic.value.DoubleValue
-21.804

@<SCITEGIC>MOL_PROPERTY
VdW6
SciTegic.value.DoubleValue
-186.725

@<SCITEGIC>MOL_PROPERTY
VdW12
SciTegic.value.DoubleValue
164.921

@<SCITEGIC>MOL_PROPERTY
Bond
SciTegic.value.DoubleValue
5.353

@<SCITEGIC>MOL_PROPERTY
Angle
SciTegic.value.DoubleValue
19.089

@<SCITEGIC>MOL_PROPERTY
Pdih
SciTegic.value.DoubleValue
138.496

@<SCITEGIC>MOL_PROPERTY
Idih
SciTegic.value.DoubleValue
0.000

@<SCITEGIC>MOL_PROPERTY
Tether
SciTegic.value.DoubleValue
0.000

