VeraChem MOL file


 13 12  0  0  0  0  0  0  0  0999 V2000     
   20.0960   19.1158   23.9490 C   0  0  0  0  0  0  0  0  0  0  0  0
   20.8158   20.0855   24.0867 O   0  5  0  0  0  0  0  0  0  0  0  0
   19.6320   18.4981   24.8860 O   0  0  0  0  0  0  0  0  0  0  0  0
   19.7402   18.6260   22.5439 C   0  0  0  0  0  0  0  0  0  0  0  0
   18.6468   18.6313   22.4622 H   0  0  0  0  0  0  0  0  0  0  0  0
   20.0618   17.5803   22.4702 H   0  0  0  0  0  0  0  0  0  0  0  0
   20.3552   19.4452   21.3791 C   0  0  0  0  0  0  0  0  0  0  0  0
   20.0340   20.4933   21.4566 H   0  0  0  0  0  0  0  0  0  0  0  0
   21.4508   19.4411   21.4646 H   0  0  0  0  0  0  0  0  0  0  0  0
   19.9428   18.8794   20.0052 C   0  0  0  0  0  0  0  0  0  0  0  0
   18.8519   18.9015   19.8825 H   0  0  0  0  0  0  0  0  0  0  0  0
   20.3871   19.4713   19.1943 H   0  0  0  0  0  0  0  0  0  0  0  0
   20.2800   17.8408   19.8907 H   0  0  0  0  0  0  0  0  0  0  0  0
  1  2  1  0  0  0  0
  1  3  2  0  0  0  0
  1  4  1  0  0  0  0
  4  5  1  0  0  0  0
  4  6  1  0  0  0  0
  4  7  1  0  0  0  0
  7  8  1  0  0  0  0
  7  9  1  0  0  0  0
  7 10  1  0  0  0  0
 10 11  1  0  0  0  0
 10 12  1  0  0  0  0
 10 13  1  0  0  0  0
M  END
> <VConfSearch Rank>
1

> <Conf_Id>
0

> <Delta U+W>
0.000

> <U+W>
-58.332

> <U>
8.390

> <W>
-66.722

> <W(PB)>
-68.455

> <W(SA)>
1.733

> <Valence>
6.333

> <Coulomb>
1.215

> <VdW>
0.842

> <VdW6>
-3.344

> <VdW12>
4.186

> <Bond>
0.091

> <Angle>
2.713

> <Pdih>
3.529

> <Idih>
0.000

> <Tether>
0.000

$$$$
VeraChem MOL file


 13 12  0  0  0  0  0  0  0  0999 V2000     
   20.0743   19.2398   23.9327 C   0  0  0  0  0  0  0  0  0  0  0  0
   20.6536   20.2215   24.3523 O   0  5  0  0  0  0  0  0  0  0  0  0
   19.9385   18.2163   24.5724 O   0  0  0  0  0  0  0  0  0  0  0  0
   19.5033   19.2884   22.5195 C   0  0  0  0  0  0  0  0  0  0  0  0
   19.1905   20.3191   22.3129 H   0  0  0  0  0  0  0  0  0  0  0  0
   18.6008   18.6655   22.4944 H   0  0  0  0  0  0  0  0  0  0  0  0
   20.5096   18.8115   21.4445 C   0  0  0  0  0  0  0  0  0  0  0  0
   21.4131   19.4359   21.4856 H   0  0  0  0  0  0  0  0  0  0  0  0
   20.8232   17.7819   21.6671 H   0  0  0  0  0  0  0  0  0  0  0  0
   19.9027   18.8726   20.0285 C   0  0  0  0  0  0  0  0  0  0  0  0
   20.6304   18.5310   19.2808 H   0  0  0  0  0  0  0  0  0  0  0  0
   19.0141   18.2320   19.9540 H   0  0  0  0  0  0  0  0  0  0  0  0
   19.6086   19.8987   19.7712 H   0  0  0  0  0  0  0  0  0  0  0  0
  1  2  1  0  0  0  0
  1  3  2  0  0  0  0
  1  4  1  0  0  0  0
  4  5  1  0  0  0  0
  4  6  1  0  0  0  0
  4  7  1  0  0  0  0
  7  8  1  0  0  0  0
  7  9  1  0  0  0  0
  7 10  1  0  0  0  0
 10 11  1  0  0  0  0
 10 12  1  0  0  0  0
 10 13  1  0  0  0  0
M  END
> <VConfSearch Rank>
2

> <Conf_Id>
1

> <Delta U+W>
-1.339

> <U+W>
-59.672

> <U>
7.389

> <W>
-67.061

> <W(PB)>
-68.767

> <W(SA)>
1.707

> <Valence>
5.822

> <Coulomb>
1.255

> <VdW>
0.312

> <VdW6>
-3.061

> <VdW12>
3.372

> <Bond>
0.059

> <Angle>
2.241

> <Pdih>
3.522

> <Idih>
0.000

> <Tether>
0.000

$$$$
VeraChem MOL file


 13 12  0  0  0  0  0  0  0  0999 V2000     
   20.1403   19.1442   23.7801 C   0  0  0  0  0  0  0  0  0  0  0  0
   20.6678   20.1498   24.2120 O   0  5  0  0  0  0  0  0  0  0  0  0
   19.1235   18.6690   24.2450 O   0  0  0  0  0  0  0  0  0  0  0  0
   20.8122   18.4220   22.6149 C   0  0  0  0  0  0  0  0  0  0  0  0
   20.4153   17.4009   22.5584 H   0  0  0  0  0  0  0  0  0  0  0  0
   21.8784   18.3343   22.8556 H   0  0  0  0  0  0  0  0  0  0  0  0
   20.6493   19.1345   21.2477 C   0  0  0  0  0  0  0  0  0  0  0  0
   21.0118   20.1690   21.3267 H   0  0  0  0  0  0  0  0  0  0  0  0
   21.2832   18.6339   20.5032 H   0  0  0  0  0  0  0  0  0  0  0  0
   19.1889   19.1306   20.7504 C   0  0  0  0  0  0  0  0  0  0  0  0
   18.5320   19.6631   21.4509 H   0  0  0  0  0  0  0  0  0  0  0  0
   19.1119   19.6244   19.7729 H   0  0  0  0  0  0  0  0  0  0  0  0
   18.8136   18.1045   20.6430 H   0  0  0  0  0  0  0  0  0  0  0  0
  1  2  1  0  0  0  0
  1  3  2  0  0  0  0
  1  4  1  0  0  0  0
  4  5  1  0  0  0  0
  4  6  1  0  0  0  0
  4  7  1  0  0  0  0
  7  8  1  0  0  0  0
  7  9  1  0  0  0  0
  7 10  1  0  0  0  0
 10 11  1  0  0  0  0
 10 12  1  0  0  0  0
 10 13  1  0  0  0  0
M  END
> <VConfSearch Rank>
3

> <Conf_Id>
4

> <Delta U+W>
0.281

> <U+W>
-58.051

> <U>
9.781

> <W>
-67.832

> <W(PB)>
-69.535

> <W(SA)>
1.703

> <Valence>
6.123

> <Coulomb>
3.449

> <VdW>
0.209

> <VdW6>
-3.762

> <VdW12>
3.972

> <Bond>
0.078

> <Angle>
2.428

> <Pdih>
3.616

> <Idih>
0.002

> <Tether>
0.000

$$$$
VeraChem MOL file


 13 12  0  0  0  0  0  0  0  0999 V2000     
   20.1971   19.1866   23.7734 C   0  0  0  0  0  0  0  0  0  0  0  0
   20.8199   20.1972   24.0317 O   0  5  0  0  0  0  0  0  0  0  0  0
   19.2220   18.8223   24.3999 O   0  0  0  0  0  0  0  0  0  0  0  0
   20.6845   18.3077   22.6241 C   0  0  0  0  0  0  0  0  0  0  0  0
   20.7137   17.2751   22.9918 H   0  0  0  0  0  0  0  0  0  0  0  0
   21.7172   18.5869   22.3817 H   0  0  0  0  0  0  0  0  0  0  0  0
   19.8001   18.3775   21.3527 C   0  0  0  0  0  0  0  0  0  0  0  0
   20.1324   17.6098   20.6406 H   0  0  0  0  0  0  0  0  0  0  0  0
   18.7602   18.1365   21.6144 H   0  0  0  0  0  0  0  0  0  0  0  0
   19.8584   19.7587   20.6681 C   0  0  0  0  0  0  0  0  0  0  0  0
   20.8870   20.0098   20.3779 H   0  0  0  0  0  0  0  0  0  0  0  0
   19.2381   19.7681   19.7624 H   0  0  0  0  0  0  0  0  0  0  0  0
   19.4904   20.5471   21.3381 H   0  0  0  0  0  0  0  0  0  0  0  0
  1  2  1  0  0  0  0
  1  3  2  0  0  0  0
  1  4  1  0  0  0  0
  4  5  1  0  0  0  0
  4  6  1  0  0  0  0
  4  7  1  0  0  0  0
  7  8  1  0  0  0  0
  7  9  1  0  0  0  0
  7 10  1  0  0  0  0
 10 11  1  0  0  0  0
 10 12  1  0  0  0  0
 10 13  1  0  0  0  0
M  END
> <VConfSearch Rank>
4

> <Conf_Id>
36

> <Delta U+W>
0.272

> <U+W>
-58.060

> <U>
9.781

> <W>
-67.841

> <W(PB)>
-69.537

> <W(SA)>
1.696

> <Valence>
6.123

> <Coulomb>
3.449

> <VdW>
0.209

> <VdW6>
-3.762

> <VdW12>
3.972

> <Bond>
0.078

> <Angle>
2.428

> <Pdih>
3.616

> <Idih>
0.002

> <Tether>
0.000

$$$$
VeraChem MOL file


 13 12  0  0  0  0  0  0  0  0999 V2000     
   18.5491   17.7601   20.9059 C   0  0  0  0  0  0  0  0  0  0  0  0
   18.5861   16.7992   21.6492 O   0  5  0  0  0  0  0  0  0  0  0  0
   17.8085   17.8253   19.9456 O   0  0  0  0  0  0  0  0  0  0  0  0
   19.4651   18.9579   21.1648 C   0  0  0  0  0  0  0  0  0  0  0  0
   18.8258   19.8421   21.2727 H   0  0  0  0  0  0  0  0  0  0  0  0
   20.0704   19.1085   20.2630 H   0  0  0  0  0  0  0  0  0  0  0  0
   20.3928   18.8298   22.4013 C   0  0  0  0  0  0  0  0  0  0  0  0
   19.7844   18.6760   23.3035 H   0  0  0  0  0  0  0  0  0  0  0  0
   21.0305   17.9415   22.2926 H   0  0  0  0  0  0  0  0  0  0  0  0
   21.2766   20.0804   22.5821 C   0  0  0  0  0  0  0  0  0  0  0  0
   20.6618   20.9789   22.7241 H   0  0  0  0  0  0  0  0  0  0  0  0
   21.9254   19.9714   23.4610 H   0  0  0  0  0  0  0  0  0  0  0  0
   21.9179   20.2385   21.7050 H   0  0  0  0  0  0  0  0  0  0  0  0
  1  2  1  0  0  0  0
  1  3  2  0  0  0  0
  1  4  1  0  0  0  0
  4  5  1  0  0  0  0
  4  6  1  0  0  0  0
  4  7  1  0  0  0  0
  7  8  1  0  0  0  0
  7  9  1  0  0  0  0
  7 10  1  0  0  0  0
 10 11  1  0  0  0  0
 10 12  1  0  0  0  0
 10 13  1  0  0  0  0
M  END
> <VConfSearch Rank>
5

> <Conf_Id>
0

> <Delta U+W>
0.000

> <U+W>
-58.332

> <U>
8.390

> <W>
-66.722

> <W(PB)>
-68.455

> <W(SA)>
1.733

> <Valence>
6.333

> <Coulomb>
1.215

> <VdW>
0.842

> <VdW6>
-3.344

> <VdW12>
4.186

> <Bond>
0.091

> <Angle>
2.713

> <Pdih>
3.529

> <Idih>
0.000

> <Tether>
0.000

$$$$
VeraChem MOL file


 13 12  0  0  0  0  0  0  0  0999 V2000     
   19.0379   18.4265   20.0490 C   0  0  0  0  0  0  0  0  0  0  0  0
   19.0321   19.2344   19.1421 O   0  5  0  0  0  0  0  0  0  0  0  0
   18.2191   17.5362   20.1599 O   0  0  0  0  0  0  0  0  0  0  0  0
   20.1203   18.5480   21.1163 C   0  0  0  0  0  0  0  0  0  0  0  0
   21.0269   18.9407   20.6400 H   0  0  0  0  0  0  0  0  0  0  0  0
   20.3564   17.5402   21.4793 H   0  0  0  0  0  0  0  0  0  0  0  0
   19.7038   19.4559   22.2987 C   0  0  0  0  0  0  0  0  0  0  0  0
   19.4602   20.4593   21.9221 H   0  0  0  0  0  0  0  0  0  0  0  0
   18.7897   19.0585   22.7617 H   0  0  0  0  0  0  0  0  0  0  0  0
   20.8183   19.5581   23.3591 C   0  0  0  0  0  0  0  0  0  0  0  0
   20.5048   20.2053   24.1886 H   0  0  0  0  0  0  0  0  0  0  0  0
   21.0589   18.5697   23.7726 H   0  0  0  0  0  0  0  0  0  0  0  0
   21.7345   19.9813   22.9266 H   0  0  0  0  0  0  0  0  0  0  0  0
  1  2  1  0  0  0  0
  1  3  2  0  0  0  0
  1  4  1  0  0  0  0
  4  5  1  0  0  0  0
  4  6  1  0  0  0  0
  4  7  1  0  0  0  0
  7  8  1  0  0  0  0
  7  9  1  0  0  0  0
  7 10  1  0  0  0  0
 10 11  1  0  0  0  0
 10 12  1  0  0  0  0
 10 13  1  0  0  0  0
M  END
> <VConfSearch Rank>
6

> <Conf_Id>
1

> <Delta U+W>
-1.339

> <U+W>
-59.672

> <U>
7.389

> <W>
-67.061

> <W(PB)>
-68.767

> <W(SA)>
1.707

> <Valence>
5.822

> <Coulomb>
1.255

> <VdW>
0.312

> <VdW6>
-3.061

> <VdW12>
3.372

> <Bond>
0.059

> <Angle>
2.241

> <Pdih>
3.522

> <Idih>
0.000

> <Tether>
0.000

$$$$
VeraChem MOL file


 13 12  0  0  0  0  0  0  0  0999 V2000     
   19.1555   18.9584   23.5037 C   0  0  0  0  0  0  0  0  0  0  0  0
   19.6640   18.4112   24.4618 O   0  5  0  0  0  0  0  0  0  0  0  0
   18.5154   19.9880   23.5825 O   0  0  0  0  0  0  0  0  0  0  0  0
   19.2997   18.2963   22.1357 C   0  0  0  0  0  0  0  0  0  0  0  0
   18.5431   18.7154   21.4609 H   0  0  0  0  0  0  0  0  0  0  0  0
   19.0594   17.2336   22.2597 H   0  0  0  0  0  0  0  0  0  0  0  0
   20.7105   18.4361   21.5085 C   0  0  0  0  0  0  0  0  0  0  0  0
   21.4644   18.0512   22.2096 H   0  0  0  0  0  0  0  0  0  0  0  0
   20.7678   17.8093   20.6081 H   0  0  0  0  0  0  0  0  0  0  0  0
   21.0467   19.8934   21.1302 C   0  0  0  0  0  0  0  0  0  0  0  0
   21.0422   20.5422   22.0161 H   0  0  0  0  0  0  0  0  0  0  0  0
   22.0423   19.9542   20.6717 H   0  0  0  0  0  0  0  0  0  0  0  0
   20.3173   20.2907   20.4122 H   0  0  0  0  0  0  0  0  0  0  0  0
  1  2  1  0  0  0  0
  1  3  2  0  0  0  0
  1  4  1  0  0  0  0
  4  5  1  0  0  0  0
  4  6  1  0  0  0  0
  4  7  1  0  0  0  0
  7  8  1  0  0  0  0
  7  9  1  0  0  0  0
  7 10  1  0  0  0  0
 10 11  1  0  0  0  0
 10 12  1  0  0  0  0
 10 13  1  0  0  0  0
M  END
> <VConfSearch Rank>
7

> <Conf_Id>
4

> <Delta U+W>
0.281

> <U+W>
-58.051

> <U>
9.781

> <W>
-67.832

> <W(PB)>
-69.535

> <W(SA)>
1.703

> <Valence>
6.123

> <Coulomb>
3.449

> <VdW>
0.209

> <VdW6>
-3.762

> <VdW12>
3.972

> <Bond>
0.078

> <Angle>
2.428

> <Pdih>
3.616

> <Idih>
0.002

> <Tether>
0.000

$$$$
VeraChem MOL file


 13 12  0  0  0  0  0  0  0  0999 V2000     
   18.7296   18.1268   21.2361 C   0  0  0  0  0  0  0  0  0  0  0  0
   17.7163   18.3635   21.8630 O   0  5  0  0  0  0  0  0  0  0  0  0
   18.7615   18.0334   20.0252 O   0  0  0  0  0  0  0  0  0  0  0  0
   20.0255   17.8988   22.0104 C   0  0  0  0  0  0  0  0  0  0  0  0
   20.4860   16.9854   21.6155 H   0  0  0  0  0  0  0  0  0  0  0  0
   19.7772   17.7000   23.0602 H   0  0  0  0  0  0  0  0  0  0  0  0
   21.0370   19.0696   21.9134 C   0  0  0  0  0  0  0  0  0  0  0  0
   21.9888   18.7614   22.3673 H   0  0  0  0  0  0  0  0  0  0  0  0
   21.2470   19.2876   20.8569 H   0  0  0  0  0  0  0  0  0  0  0  0
   20.5325   20.3456   22.6185 C   0  0  0  0  0  0  0  0  0  0  0  0
   20.3375   20.1553   23.6820 H   0  0  0  0  0  0  0  0  0  0  0  0
   21.2792   21.1473   22.5483 H   0  0  0  0  0  0  0  0  0  0  0  0
   19.6028   20.7084   22.1603 H   0  0  0  0  0  0  0  0  0  0  0  0
  1  2  1  0  0  0  0
  1  3  2  0  0  0  0
  1  4  1  0  0  0  0
  4  5  1  0  0  0  0
  4  6  1  0  0  0  0
  4  7  1  0  0  0  0
  7  8  1  0  0  0  0
  7  9  1  0  0  0  0
  7 10  1  0  0  0  0
 10 11  1  0  0  0  0
 10 12  1  0  0  0  0
 10 13  1  0  0  0  0
M  END
> <VConfSearch Rank>
8

> <Conf_Id>
36

> <Delta U+W>
0.272

> <U+W>
-58.060

> <U>
9.781

> <W>
-67.841

> <W(PB)>
-69.537

> <W(SA)>
1.696

> <Valence>
6.123

> <Coulomb>
3.449

> <VdW>
0.209

> <VdW6>
-3.762

> <VdW12>
3.972

> <Bond>
0.078

> <Angle>
2.428

> <Pdih>
3.616

> <Idih>
0.002

> <Tether>
0.000

$$$$
VeraChem MOL file


 13 12  0  0  0  0  0  0  0  0999 V2000     
   21.7630   18.2688   22.8123 C   0  0  0  0  0  0  0  0  0  0  0  0
   22.5882   18.4131   21.9317 O   0  5  0  0  0  0  0  0  0  0  0  0
   22.0344   17.8132   23.9048 O   0  0  0  0  0  0  0  0  0  0  0  0
   20.3075   18.6695   22.5639 C   0  0  0  0  0  0  0  0  0  0  0  0
   20.0350   19.4054   23.3298 H   0  0  0  0  0  0  0  0  0  0  0  0
   19.6887   17.7814   22.7387 H   0  0  0  0  0  0  0  0  0  0  0  0
   20.0082   19.2461   21.1554 C   0  0  0  0  0  0  0  0  0  0  0  0
   20.6314   20.1343   20.9812 H   0  0  0  0  0  0  0  0  0  0  0  0
   20.2847   18.5083   20.3893 H   0  0  0  0  0  0  0  0  0  0  0  0
   18.5207   19.6206   20.9978 C   0  0  0  0  0  0  0  0  0  0  0  0
   18.2268   20.3809   21.7334 H   0  0  0  0  0  0  0  0  0  0  0  0
   18.3283   20.0263   19.9959 H   0  0  0  0  0  0  0  0  0  0  0  0
   17.8773   18.7418   21.1368 H   0  0  0  0  0  0  0  0  0  0  0  0
  1  2  1  0  0  0  0
  1  3  2  0  0  0  0
  1  4  1  0  0  0  0
  4  5  1  0  0  0  0
  4  6  1  0  0  0  0
  4  7  1  0  0  0  0
  7  8  1  0  0  0  0
  7  9  1  0  0  0  0
  7 10  1  0  0  0  0
 10 11  1  0  0  0  0
 10 12  1  0  0  0  0
 10 13  1  0  0  0  0
M  END
> <VConfSearch Rank>
9

> <Conf_Id>
0

> <Delta U+W>
0.000

> <U+W>
-58.332

> <U>
8.390

> <W>
-66.722

> <W(PB)>
-68.455

> <W(SA)>
1.733

> <Valence>
6.333

> <Coulomb>
1.215

> <VdW>
0.842

> <VdW6>
-3.344

> <VdW12>
4.186

> <Bond>
0.091

> <Angle>
2.713

> <Pdih>
3.529

> <Idih>
0.000

> <Tether>
0.000

$$$$
VeraChem MOL file


 13 12  0  0  0  0  0  0  0  0999 V2000     
   21.3923   20.6150   21.7309 C   0  0  0  0  0  0  0  0  0  0  0  0
   21.1304   21.6056   22.3831 O   0  5  0  0  0  0  0  0  0  0  0  0
   22.1124   20.6266   20.7528 O   0  0  0  0  0  0  0  0  0  0  0  0
   20.7684   19.2886   22.1516 C   0  0  0  0  0  0  0  0  0  0  0  0
   20.6613   19.2927   23.2432 H   0  0  0  0  0  0  0  0  0  0  0  0
   21.4711   18.4853   21.8987 H   0  0  0  0  0  0  0  0  0  0  0  0
   19.3972   19.0269   21.4829 C   0  0  0  0  0  0  0  0  0  0  0  0
   18.7049   19.8424   21.7349 H   0  0  0  0  0  0  0  0  0  0  0  0
   19.5149   19.0347   20.3902 H   0  0  0  0  0  0  0  0  0  0  0  0
   18.7936   17.6798   21.9284 C   0  0  0  0  0  0  0  0  0  0  0  0
   17.8227   17.5121   21.4442 H   0  0  0  0  0  0  0  0  0  0  0  0
   19.4548   16.8453   21.6602 H   0  0  0  0  0  0  0  0  0  0  0  0
   18.6386   17.6592   23.0151 H   0  0  0  0  0  0  0  0  0  0  0  0
  1  2  1  0  0  0  0
  1  3  2  0  0  0  0
  1  4  1  0  0  0  0
  4  5  1  0  0  0  0
  4  6  1  0  0  0  0
  4  7  1  0  0  0  0
  7  8  1  0  0  0  0
  7  9  1  0  0  0  0
  7 10  1  0  0  0  0
 10 11  1  0  0  0  0
 10 12  1  0  0  0  0
 10 13  1  0  0  0  0
M  END
> <VConfSearch Rank>
10

> <Conf_Id>
1

> <Delta U+W>
-1.339

> <U+W>
-59.672

> <U>
7.389

> <W>
-67.061

> <W(PB)>
-68.767

> <W(SA)>
1.707

> <Valence>
5.822

> <Coulomb>
1.255

> <VdW>
0.312

> <VdW6>
-3.061

> <VdW12>
3.372

> <Bond>
0.059

> <Angle>
2.241

> <Pdih>
3.522

> <Idih>
0.000

> <Tether>
0.000

$$$$
VeraChem MOL file


 13 12  0  0  0  0  0  0  0  0999 V2000     
   18.4239   19.5290   21.9659 C   0  0  0  0  0  0  0  0  0  0  0  0
   17.5755   18.6593   21.9542 O   0  5  0  0  0  0  0  0  0  0  0  0
   18.3218   20.5553   22.6078 O   0  0  0  0  0  0  0  0  0  0  0  0
   19.6659   19.3354   21.0995 C   0  0  0  0  0  0  0  0  0  0  0  0
   20.1575   20.3071   20.9678 H   0  0  0  0  0  0  0  0  0  0  0  0
   19.3259   19.0155   20.1073 H   0  0  0  0  0  0  0  0  0  0  0  0
   20.6739   18.2984   21.6581 C   0  0  0  0  0  0  0  0  0  0  0  0
   20.1616   17.3406   21.8252 H   0  0  0  0  0  0  0  0  0  0  0  0
   21.4530   18.1127   20.9062 H   0  0  0  0  0  0  0  0  0  0  0  0
   21.3397   18.7686   22.9680 C   0  0  0  0  0  0  0  0  0  0  0  0
   20.5922   18.9219   23.7577 H   0  0  0  0  0  0  0  0  0  0  0  0
   22.0606   18.0218   23.3252 H   0  0  0  0  0  0  0  0  0  0  0  0
   21.8767   19.7144   22.8177 H   0  0  0  0  0  0  0  0  0  0  0  0
  1  2  1  0  0  0  0
  1  3  2  0  0  0  0
  1  4  1  0  0  0  0
  4  5  1  0  0  0  0
  4  6  1  0  0  0  0
  4  7  1  0  0  0  0
  7  8  1  0  0  0  0
  7  9  1  0  0  0  0
  7 10  1  0  0  0  0
 10 11  1  0  0  0  0
 10 12  1  0  0  0  0
 10 13  1  0  0  0  0
M  END
> <VConfSearch Rank>
11

> <Conf_Id>
4

> <Delta U+W>
0.281

> <U+W>
-58.051

> <U>
9.781

> <W>
-67.832

> <W(PB)>
-69.535

> <W(SA)>
1.703

> <Valence>
6.123

> <Coulomb>
3.449

> <VdW>
0.209

> <VdW6>
-3.762

> <VdW12>
3.972

> <Bond>
0.078

> <Angle>
2.428

> <Pdih>
3.616

> <Idih>
0.002

> <Tether>
0.000

$$$$
VeraChem MOL file


 13 12  0  0  0  0  0  0  0  0999 V2000     
   20.5556   18.2630   20.4088 C   0  0  0  0  0  0  0  0  0  0  0  0
   19.7030   18.5424   19.5896 O   0  5  0  0  0  0  0  0  0  0  0  0
   21.7426   18.2228   20.1527 O   0  0  0  0  0  0  0  0  0  0  0  0
   20.1120   17.9085   21.8259 C   0  0  0  0  0  0  0  0  0  0  0  0
   20.6287   16.9836   22.1086 H   0  0  0  0  0  0  0  0  0  0  0  0
   19.0391   17.6803   21.8116 H   0  0  0  0  0  0  0  0  0  0  0  0
   20.4100   19.0076   22.8778 C   0  0  0  0  0  0  0  0  0  0  0  0
   20.1997   18.6122   23.8809 H   0  0  0  0  0  0  0  0  0  0  0  0
   21.4799   19.2580   22.8550 H   0  0  0  0  0  0  0  0  0  0  0  0
   19.5715   20.2829   22.6529 C   0  0  0  0  0  0  0  0  0  0  0  0
   18.4975   20.0587   22.6940 H   0  0  0  0  0  0  0  0  0  0  0  0
   19.7919   21.0319   23.4247 H   0  0  0  0  0  0  0  0  0  0  0  0
   19.7897   20.7312   21.6745 H   0  0  0  0  0  0  0  0  0  0  0  0
  1  2  1  0  0  0  0
  1  3  2  0  0  0  0
  1  4  1  0  0  0  0
  4  5  1  0  0  0  0
  4  6  1  0  0  0  0
  4  7  1  0  0  0  0
  7  8  1  0  0  0  0
  7  9  1  0  0  0  0
  7 10  1  0  0  0  0
 10 11  1  0  0  0  0
 10 12  1  0  0  0  0
 10 13  1  0  0  0  0
M  END
> <VConfSearch Rank>
12

> <Conf_Id>
36

> <Delta U+W>
0.272

> <U+W>
-58.060

> <U>
9.781

> <W>
-67.841

> <W(PB)>
-69.537

> <W(SA)>
1.696

> <Valence>
6.123

> <Coulomb>
3.449

> <VdW>
0.209

> <VdW6>
-3.762

> <VdW12>
3.972

> <Bond>
0.078

> <Angle>
2.428

> <Pdih>
3.616

> <Idih>
0.002

> <Tether>
0.000

$$$$
VeraChem MOL file


 13 12  0  0  0  0  0  0  0  0999 V2000     
   18.8907   17.3966   22.6534 C   0  0  0  0  0  0  0  0  0  0  0  0
   19.7884   16.7103   23.1010 O   0  5  0  0  0  0  0  0  0  0  0  0
   17.7181   17.0948   22.7464 O   0  0  0  0  0  0  0  0  0  0  0  0
   19.2205   18.7062   21.9344 C   0  0  0  0  0  0  0  0  0  0  0  0
   18.6905   19.5103   22.4585 H   0  0  0  0  0  0  0  0  0  0  0  0
   18.7921   18.6438   20.9269 H   0  0  0  0  0  0  0  0  0  0  0  0
   20.7300   19.0503   21.8398 C   0  0  0  0  0  0  0  0  0  0  0  0
   21.1581   19.1095   22.8502 H   0  0  0  0  0  0  0  0  0  0  0  0
   21.2598   18.2418   21.3168 H   0  0  0  0  0  0  0  0  0  0  0  0
   20.9650   20.3834   21.1011 C   0  0  0  0  0  0  0  0  0  0  0  0
   20.4705   21.2138   21.6221 H   0  0  0  0  0  0  0  0  0  0  0  0
   22.0377   20.6098   21.0441 H   0  0  0  0  0  0  0  0  0  0  0  0
   20.5730   20.3391   20.0764 H   0  0  0  0  0  0  0  0  0  0  0  0
  1  2  1  0  0  0  0
  1  3  2  0  0  0  0
  1  4  1  0  0  0  0
  4  5  1  0  0  0  0
  4  6  1  0  0  0  0
  4  7  1  0  0  0  0
  7  8  1  0  0  0  0
  7  9  1  0  0  0  0
  7 10  1  0  0  0  0
 10 11  1  0  0  0  0
 10 12  1  0  0  0  0
 10 13  1  0  0  0  0
M  END
> <VConfSearch Rank>
13

> <Conf_Id>
0

> <Delta U+W>
0.000

> <U+W>
-58.332

> <U>
8.390

> <W>
-66.722

> <W(PB)>
-68.455

> <W(SA)>
1.733

> <Valence>
6.333

> <Coulomb>
1.215

> <VdW>
0.842

> <VdW6>
-3.344

> <VdW12>
4.186

> <Bond>
0.091

> <Angle>
2.713

> <Pdih>
3.529

> <Idih>
0.000

> <Tether>
0.000

$$$$
VeraChem MOL file


 13 12  0  0  0  0  0  0  0  0999 V2000     
   19.1269   18.9901   19.9049 C   0  0  0  0  0  0  0  0  0  0  0  0
   18.4519   18.0138   19.6471 O   0  5  0  0  0  0  0  0  0  0  0  0
   19.6695   19.6730   19.0595 O   0  0  0  0  0  0  0  0  0  0  0  0
   19.3190   19.3679   21.3697 C   0  0  0  0  0  0  0  0  0  0  0  0
   18.4092   19.0906   21.9160 H   0  0  0  0  0  0  0  0  0  0  0  0
   19.4133   20.4589   21.4314 H   0  0  0  0  0  0  0  0  0  0  0  0
   20.5533   18.6895   22.0118 C   0  0  0  0  0  0  0  0  0  0  0  0
   20.4526   17.5978   21.9354 H   0  0  0  0  0  0  0  0  0  0  0  0
   21.4569   18.9664   21.4508 H   0  0  0  0  0  0  0  0  0  0  0  0
   20.7195   19.0913   23.4911 C   0  0  0  0  0  0  0  0  0  0  0  0
   21.5989   18.6008   23.9285 H   0  0  0  0  0  0  0  0  0  0  0  0
   20.8519   20.1766   23.5908 H   0  0  0  0  0  0  0  0  0  0  0  0
   19.8399   18.7975   24.0790 H   0  0  0  0  0  0  0  0  0  0  0  0
  1  2  1  0  0  0  0
  1  3  2  0  0  0  0
  1  4  1  0  0  0  0
  4  5  1  0  0  0  0
  4  6  1  0  0  0  0
  4  7  1  0  0  0  0
  7  8  1  0  0  0  0
  7  9  1  0  0  0  0
  7 10  1  0  0  0  0
 10 11  1  0  0  0  0
 10 12  1  0  0  0  0
 10 13  1  0  0  0  0
M  END
> <VConfSearch Rank>
14

> <Conf_Id>
1

> <Delta U+W>
-1.339

> <U+W>
-59.672

> <U>
7.389

> <W>
-67.061

> <W(PB)>
-68.767

> <W(SA)>
1.707

> <Valence>
5.822

> <Coulomb>
1.255

> <VdW>
0.312

> <VdW6>
-3.061

> <VdW12>
3.372

> <Bond>
0.059

> <Angle>
2.241

> <Pdih>
3.522

> <Idih>
0.000

> <Tether>
0.000

$$$$
VeraChem MOL file


 13 12  0  0  0  0  0  0  0  0999 V2000     
   18.7612   19.7781   22.8296 C   0  0  0  0  0  0  0  0  0  0  0  0
   19.0572   20.6944   23.5704 O   0  5  0  0  0  0  0  0  0  0  0  0
   17.7902   19.7941   22.0997 O   0  0  0  0  0  0  0  0  0  0  0  0
   19.6368   18.5276   22.8451 C   0  0  0  0  0  0  0  0  0  0  0  0
   19.0778   17.7014   22.3889 H   0  0  0  0  0  0  0  0  0  0  0  0
   19.8016   18.2568   23.8949 H   0  0  0  0  0  0  0  0  0  0  0  0
   21.0048   18.7020   22.1369 C   0  0  0  0  0  0  0  0  0  0  0  0
   21.5387   19.5576   22.5737 H   0  0  0  0  0  0  0  0  0  0  0  0
   21.6236   17.8141   22.3257 H   0  0  0  0  0  0  0  0  0  0  0  0
   20.8600   18.9006   20.6139 C   0  0  0  0  0  0  0  0  0  0  0  0
   20.2826   19.8068   20.3872 H   0  0  0  0  0  0  0  0  0  0  0  0
   21.8458   19.0009   20.1414 H   0  0  0  0  0  0  0  0  0  0  0  0
   20.3481   18.0454   20.1535 H   0  0  0  0  0  0  0  0  0  0  0  0
  1  2  1  0  0  0  0
  1  3  2  0  0  0  0
  1  4  1  0  0  0  0
  4  5  1  0  0  0  0
  4  6  1  0  0  0  0
  4  7  1  0  0  0  0
  7  8  1  0  0  0  0
  7  9  1  0  0  0  0
  7 10  1  0  0  0  0
 10 11  1  0  0  0  0
 10 12  1  0  0  0  0
 10 13  1  0  0  0  0
M  END
> <VConfSearch Rank>
15

> <Conf_Id>
4

> <Delta U+W>
0.281

> <U+W>
-58.051

> <U>
9.781

> <W>
-67.832

> <W(PB)>
-69.535

> <W(SA)>
1.703

> <Valence>
6.123

> <Coulomb>
3.449

> <VdW>
0.209

> <VdW6>
-3.762

> <VdW12>
3.972

> <Bond>
0.078

> <Angle>
2.428

> <Pdih>
3.616

> <Idih>
0.002

> <Tether>
0.000

$$$$
VeraChem MOL file


 13 12  0  0  0  0  0  0  0  0999 V2000     
   19.8273   19.6063   20.3476 C   0  0  0  0  0  0  0  0  0  0  0  0
   20.8891   19.8772   19.8233 O   0  5  0  0  0  0  0  0  0  0  0  0
   18.8875   19.1245   19.7469 O   0  0  0  0  0  0  0  0  0  0  0  0
   19.6495   19.9196   21.8312 C   0  0  0  0  0  0  0  0  0  0  0  0
   18.6939   20.4457   21.9421 H   0  0  0  0  0  0  0  0  0  0  0  0
   20.4348   20.6211   22.1387 H   0  0  0  0  0  0  0  0  0  0  0  0
   19.6600   18.6705   22.7493 C   0  0  0  0  0  0  0  0  0  0  0  0
   19.3774   18.9701   23.7678 H   0  0  0  0  0  0  0  0  0  0  0  0
   18.8979   17.9563   22.4073 H   0  0  0  0  0  0  0  0  0  0  0  0
   21.0391   17.9804   22.7915 C   0  0  0  0  0  0  0  0  0  0  0  0
   21.8127   18.6709   23.1523 H   0  0  0  0  0  0  0  0  0  0  0  0
   21.0174   17.1133   23.4644 H   0  0  0  0  0  0  0  0  0  0  0  0
   21.3344   17.6274   21.7945 H   0  0  0  0  0  0  0  0  0  0  0  0
  1  2  1  0  0  0  0
  1  3  2  0  0  0  0
  1  4  1  0  0  0  0
  4  5  1  0  0  0  0
  4  6  1  0  0  0  0
  4  7  1  0  0  0  0
  7  8  1  0  0  0  0
  7  9  1  0  0  0  0
  7 10  1  0  0  0  0
 10 11  1  0  0  0  0
 10 12  1  0  0  0  0
 10 13  1  0  0  0  0
M  END
> <VConfSearch Rank>
16

> <Conf_Id>
36

> <Delta U+W>
0.272

> <U+W>
-58.060

> <U>
9.781

> <W>
-67.841

> <W(PB)>
-69.537

> <W(SA)>
1.696

> <Valence>
6.123

> <Coulomb>
3.449

> <VdW>
0.209

> <VdW6>
-3.762

> <VdW12>
3.972

> <Bond>
0.078

> <Angle>
2.428

> <Pdih>
3.616

> <Idih>
0.002

> <Tether>
0.000

$$$$
VeraChem MOL file


 13 12  0  0  0  0  0  0  0  0999 V2000     
   18.8341   18.9646   20.0506 C   0  0  0  0  0  0  0  0  0  0  0  0
   19.4760   18.1823   19.3772 O   0  5  0  0  0  0  0  0  0  0  0  0
   17.8118   19.4903   19.6592 O   0  0  0  0  0  0  0  0  0  0  0  0
   19.3098   19.3239   21.4596 C   0  0  0  0  0  0  0  0  0  0  0  0
   18.4978   19.0746   22.1532 H   0  0  0  0  0  0  0  0  0  0  0  0
   19.4379   20.4123   21.4947 H   0  0  0  0  0  0  0  0  0  0  0  0
   20.6190   18.6287   21.9164 C   0  0  0  0  0  0  0  0  0  0  0  0
   20.4894   17.5380   21.8778 H   0  0  0  0  0  0  0  0  0  0  0  0
   21.4306   18.8774   21.2185 H   0  0  0  0  0  0  0  0  0  0  0  0
   21.0193   19.0504   23.3446 C   0  0  0  0  0  0  0  0  0  0  0  0
   20.2365   18.7841   24.0669 H   0  0  0  0  0  0  0  0  0  0  0  0
   21.9470   18.5489   23.6500 H   0  0  0  0  0  0  0  0  0  0  0  0
   21.1852   20.1342   23.4023 H   0  0  0  0  0  0  0  0  0  0  0  0
  1  2  1  0  0  0  0
  1  3  2  0  0  0  0
  1  4  1  0  0  0  0
  4  5  1  0  0  0  0
  4  6  1  0  0  0  0
  4  7  1  0  0  0  0
  7  8  1  0  0  0  0
  7  9  1  0  0  0  0
  7 10  1  0  0  0  0
 10 11  1  0  0  0  0
 10 12  1  0  0  0  0
 10 13  1  0  0  0  0
M  END
> <VConfSearch Rank>
17

> <Conf_Id>
0

> <Delta U+W>
0.000

> <U+W>
-58.332

> <U>
8.390

> <W>
-66.722

> <W(PB)>
-68.455

> <W(SA)>
1.733

> <Valence>
6.333

> <Coulomb>
1.215

> <VdW>
0.842

> <VdW6>
-3.344

> <VdW12>
4.186

> <Bond>
0.091

> <Angle>
2.713

> <Pdih>
3.529

> <Idih>
0.000

> <Tether>
0.000

$$$$
VeraChem MOL file


 13 12  0  0  0  0  0  0  0  0999 V2000     
   18.8080   17.4562   22.5787 C   0  0  0  0  0  0  0  0  0  0  0  0
   19.1519   16.9914   23.6469 O   0  5  0  0  0  0  0  0  0  0  0  0
   18.1590   16.8409   21.7568 O   0  0  0  0  0  0  0  0  0  0  0  0
   19.2298   18.8829   22.2435 C   0  0  0  0  0  0  0  0  0  0  0  0
   19.2669   19.4563   23.1778 H   0  0  0  0  0  0  0  0  0  0  0  0
   18.4480   19.3322   21.6192 H   0  0  0  0  0  0  0  0  0  0  0  0
   20.5962   18.9547   21.5199 C   0  0  0  0  0  0  0  0  0  0  0  0
   21.3693   18.4930   22.1500 H   0  0  0  0  0  0  0  0  0  0  0  0
   20.5502   18.3690   20.5911 H   0  0  0  0  0  0  0  0  0  0  0  0
   20.9937   20.4086   21.1955 C   0  0  0  0  0  0  0  0  0  0  0  0
   21.9642   20.4390   20.6831 H   0  0  0  0  0  0  0  0  0  0  0  0
   20.2500   20.8825   20.5413 H   0  0  0  0  0  0  0  0  0  0  0  0
   21.0754   21.0074   22.1122 H   0  0  0  0  0  0  0  0  0  0  0  0
  1  2  1  0  0  0  0
  1  3  2  0  0  0  0
  1  4  1  0  0  0  0
  4  5  1  0  0  0  0
  4  6  1  0  0  0  0
  4  7  1  0  0  0  0
  7  8  1  0  0  0  0
  7  9  1  0  0  0  0
  7 10  1  0  0  0  0
 10 11  1  0  0  0  0
 10 12  1  0  0  0  0
 10 13  1  0  0  0  0
M  END
> <VConfSearch Rank>
18

> <Conf_Id>
1

> <Delta U+W>
-1.339

> <U+W>
-59.672

> <U>
7.389

> <W>
-67.061

> <W(PB)>
-68.767

> <W(SA)>
1.707

> <Valence>
5.822

> <Coulomb>
1.255

> <VdW>
0.312

> <VdW6>
-3.061

> <VdW12>
3.372

> <Bond>
0.059

> <Angle>
2.241

> <Pdih>
3.522

> <Idih>
0.000

> <Tether>
0.000

$$$$
VeraChem MOL file


 13 12  0  0  0  0  0  0  0  0999 V2000     
   21.5808   18.4283   21.1020 C   0  0  0  0  0  0  0  0  0  0  0  0
   22.4501   19.2626   20.9453 O   0  5  0  0  0  0  0  0  0  0  0  0
   21.8095   17.2635   21.3604 O   0  0  0  0  0  0  0  0  0  0  0  0
   20.1272   18.8616   20.9291 C   0  0  0  0  0  0  0  0  0  0  0  0
   19.5089   17.9673   20.7831 H   0  0  0  0  0  0  0  0  0  0  0  0
   20.0673   19.4428   20.0013 H   0  0  0  0  0  0  0  0  0  0  0  0
   19.5731   19.7076   22.1041 C   0  0  0  0  0  0  0  0  0  0  0  0
   20.2229   20.5786   22.2686 H   0  0  0  0  0  0  0  0  0  0  0  0
   18.5838   20.0991   21.8306 H   0  0  0  0  0  0  0  0  0  0  0  0
   19.4502   18.8954   23.4099 C   0  0  0  0  0  0  0  0  0  0  0  0
   20.4305   18.5247   23.7379 H   0  0  0  0  0  0  0  0  0  0  0  0
   19.0373   19.5172   24.2149 H   0  0  0  0  0  0  0  0  0  0  0  0
   18.7866   18.0314   23.2737 H   0  0  0  0  0  0  0  0  0  0  0  0
  1  2  1  0  0  0  0
  1  3  2  0  0  0  0
  1  4  1  0  0  0  0
  4  5  1  0  0  0  0
  4  6  1  0  0  0  0
  4  7  1  0  0  0  0
  7  8  1  0  0  0  0
  7  9  1  0  0  0  0
  7 10  1  0  0  0  0
 10 11  1  0  0  0  0
 10 12  1  0  0  0  0
 10 13  1  0  0  0  0
M  END
> <VConfSearch Rank>
19

> <Conf_Id>
4

> <Delta U+W>
0.281

> <U+W>
-58.051

> <U>
9.781

> <W>
-67.832

> <W(PB)>
-69.535

> <W(SA)>
1.703

> <Valence>
6.123

> <Coulomb>
3.449

> <VdW>
0.209

> <VdW6>
-3.762

> <VdW12>
3.972

> <Bond>
0.078

> <Angle>
2.428

> <Pdih>
3.616

> <Idih>
0.002

> <Tether>
0.000

$$$$
VeraChem MOL file


 13 12  0  0  0  0  0  0  0  0999 V2000     
   20.6565   17.7346   20.8141 C   0  0  0  0  0  0  0  0  0  0  0  0
   19.6996   17.3251   20.1874 O   0  5  0  0  0  0  0  0  0  0  0  0
   21.7532   17.9114   20.3221 O   0  0  0  0  0  0  0  0  0  0  0  0
   20.4837   18.0081   22.3061 C   0  0  0  0  0  0  0  0  0  0  0  0
   21.3214   17.5277   22.8257 H   0  0  0  0  0  0  0  0  0  0  0  0
   19.5694   17.5099   22.6511 H   0  0  0  0  0  0  0  0  0  0  0  0
   20.4432   19.5133   22.6748 C   0  0  0  0  0  0  0  0  0  0  0  0
   20.4698   19.6168   23.7682 H   0  0  0  0  0  0  0  0  0  0  0  0
   21.3439   20.0109   22.2886 H   0  0  0  0  0  0  0  0  0  0  0  0
   19.1841   20.2204   22.1322 C   0  0  0  0  0  0  0  0  0  0  0  0
   18.2716   19.7523   22.5239 H   0  0  0  0  0  0  0  0  0  0  0  0
   19.1769   21.2778   22.4271 H   0  0  0  0  0  0  0  0  0  0  0  0
   19.1476   20.1749   21.0356 H   0  0  0  0  0  0  0  0  0  0  0  0
  1  2  1  0  0  0  0
  1  3  2  0  0  0  0
  1  4  1  0  0  0  0
  4  5  1  0  0  0  0
  4  6  1  0  0  0  0
  4  7  1  0  0  0  0
  7  8  1  0  0  0  0
  7  9  1  0  0  0  0
  7 10  1  0  0  0  0
 10 11  1  0  0  0  0
 10 12  1  0  0  0  0
 10 13  1  0  0  0  0
M  END
> <VConfSearch Rank>
20

> <Conf_Id>
36

> <Delta U+W>
0.272

> <U+W>
-58.060

> <U>
9.781

> <W>
-67.841

> <W(PB)>
-69.537

> <W(SA)>
1.696

> <Valence>
6.123

> <Coulomb>
3.449

> <VdW>
0.209

> <VdW6>
-3.762

> <VdW12>
3.972

> <Bond>
0.078

> <Angle>
2.428

> <Pdih>
3.616

> <Idih>
0.002

> <Tether>
0.000

$$$$
VeraChem MOL file


 13 12  0  0  0  0  0  0  0  0999 V2000     
   18.4193   20.2375   22.4896 C   0  0  0  0  0  0  0  0  0  0  0  0
   18.0315   20.6799   21.4260 O   0  5  0  0  0  0  0  0  0  0  0  0
   17.9107   20.5307   23.5527 O   0  0  0  0  0  0  0  0  0  0  0  0
   19.6000   19.2652   22.5241 C   0  0  0  0  0  0  0  0  0  0  0  0
   19.2544   18.3472   23.0140 H   0  0  0  0  0  0  0  0  0  0  0  0
   20.3676   19.7046   23.1723 H   0  0  0  0  0  0  0  0  0  0  0  0
   20.2171   18.9202   21.1435 C   0  0  0  0  0  0  0  0  0  0  0  0
   19.4457   18.4827   20.4945 H   0  0  0  0  0  0  0  0  0  0  0  0
   20.5602   19.8419   20.6529 H   0  0  0  0  0  0  0  0  0  0  0  0
   21.3974   17.9368   21.2769 C   0  0  0  0  0  0  0  0  0  0  0  0
   21.0732   16.9941   21.7370 H   0  0  0  0  0  0  0  0  0  0  0  0
   21.8206   17.7048   20.2909 H   0  0  0  0  0  0  0  0  0  0  0  0
   22.1966   18.3641   21.8968 H   0  0  0  0  0  0  0  0  0  0  0  0
  1  2  1  0  0  0  0
  1  3  2  0  0  0  0
  1  4  1  0  0  0  0
  4  5  1  0  0  0  0
  4  6  1  0  0  0  0
  4  7  1  0  0  0  0
  7  8  1  0  0  0  0
  7  9  1  0  0  0  0
  7 10  1  0  0  0  0
 10 11  1  0  0  0  0
 10 12  1  0  0  0  0
 10 13  1  0  0  0  0
M  END
> <VConfSearch Rank>
21

> <Conf_Id>
0

> <Delta U+W>
0.000

> <U+W>
-58.332

> <U>
8.390

> <W>
-66.722

> <W(PB)>
-68.455

> <W(SA)>
1.733

> <Valence>
6.333

> <Coulomb>
1.215

> <VdW>
0.842

> <VdW6>
-3.344

> <VdW12>
4.186

> <Bond>
0.091

> <Angle>
2.713

> <Pdih>
3.529

> <Idih>
0.000

> <Tether>
0.000

$$$$
VeraChem MOL file


 13 12  0  0  0  0  0  0  0  0999 V2000     
   18.6370   19.0139   20.2101 C   0  0  0  0  0  0  0  0  0  0  0  0
   18.9874   18.3835   19.2328 O   0  5  0  0  0  0  0  0  0  0  0  0
   17.8361   19.9262   20.1685 O   0  0  0  0  0  0  0  0  0  0  0  0
   19.2498   18.6531   21.5591 C   0  0  0  0  0  0  0  0  0  0  0  0
   19.4506   17.5748   21.5654 H   0  0  0  0  0  0  0  0  0  0  0  0
   18.5012   18.8470   22.3369 H   0  0  0  0  0  0  0  0  0  0  0  0
   20.5486   19.4386   21.8623 C   0  0  0  0  0  0  0  0  0  0  0  0
   21.2871   19.2446   21.0719 H   0  0  0  0  0  0  0  0  0  0  0  0
   20.3375   20.5169   21.8437 H   0  0  0  0  0  0  0  0  0  0  0  0
   21.1426   19.0513   23.2314 C   0  0  0  0  0  0  0  0  0  0  0  0
   22.0619   19.6181   23.4283 H   0  0  0  0  0  0  0  0  0  0  0  0
   20.4330   19.2642   24.0418 H   0  0  0  0  0  0  0  0  0  0  0  0
   21.3899   17.9821   23.2640 H   0  0  0  0  0  0  0  0  0  0  0  0
  1  2  1  0  0  0  0
  1  3  2  0  0  0  0
  1  4  1  0  0  0  0
  4  5  1  0  0  0  0
  4  6  1  0  0  0  0
  4  7  1  0  0  0  0
  7  8  1  0  0  0  0
  7  9  1  0  0  0  0
  7 10  1  0  0  0  0
 10 11  1  0  0  0  0
 10 12  1  0  0  0  0
 10 13  1  0  0  0  0
M  END
> <VConfSearch Rank>
22

> <Conf_Id>
1

> <Delta U+W>
-1.339

> <U+W>
-59.672

> <U>
7.389

> <W>
-67.061

> <W(PB)>
-68.767

> <W(SA)>
1.707

> <Valence>
5.822

> <Coulomb>
1.255

> <VdW>
0.312

> <VdW6>
-3.061

> <VdW12>
3.372

> <Bond>
0.059

> <Angle>
2.241

> <Pdih>
3.522

> <Idih>
0.000

> <Tether>
0.000

$$$$
VeraChem MOL file


 13 12  0  0  0  0  0  0  0  0999 V2000     
   20.7818   18.2841   23.5176 C   0  0  0  0  0  0  0  0  0  0  0  0
   19.9956   17.6661   24.2076 O   0  5  0  0  0  0  0  0  0  0  0  0
   21.9348   17.9420   23.3460 O   0  0  0  0  0  0  0  0  0  0  0  0
   20.3031   19.5771   22.8621 C   0  0  0  0  0  0  0  0  0  0  0  0
   21.1797   20.1624   22.5582 H   0  0  0  0  0  0  0  0  0  0  0  0
   19.7838   20.1610   23.6314 H   0  0  0  0  0  0  0  0  0  0  0  0
   19.3582   19.3631   21.6519 C   0  0  0  0  0  0  0  0  0  0  0  0
   18.5049   18.7413   21.9571 H   0  0  0  0  0  0  0  0  0  0  0  0
   18.9467   20.3330   21.3407 H   0  0  0  0  0  0  0  0  0  0  0  0
   20.0749   18.7113   20.4513 C   0  0  0  0  0  0  0  0  0  0  0  0
   20.4617   17.7178   20.7145 H   0  0  0  0  0  0  0  0  0  0  0  0
   19.3842   18.5923   19.6065 H   0  0  0  0  0  0  0  0  0  0  0  0
   20.9188   19.3284   20.1158 H   0  0  0  0  0  0  0  0  0  0  0  0
  1  2  1  0  0  0  0
  1  3  2  0  0  0  0
  1  4  1  0  0  0  0
  4  5  1  0  0  0  0
  4  6  1  0  0  0  0
  4  7  1  0  0  0  0
  7  8  1  0  0  0  0
  7  9  1  0  0  0  0
  7 10  1  0  0  0  0
 10 11  1  0  0  0  0
 10 12  1  0  0  0  0
 10 13  1  0  0  0  0
M  END
> <VConfSearch Rank>
23

> <Conf_Id>
4

> <Delta U+W>
0.281

> <U+W>
-58.051

> <U>
9.781

> <W>
-67.832

> <W(PB)>
-69.535

> <W(SA)>
1.703

> <Valence>
6.123

> <Coulomb>
3.449

> <VdW>
0.209

> <VdW6>
-3.762

> <VdW12>
3.972

> <Bond>
0.078

> <Angle>
2.428

> <Pdih>
3.616

> <Idih>
0.002

> <Tether>
0.000

$$$$
VeraChem MOL file


 13 12  0  0  0  0  0  0  0  0999 V2000     
   20.8766   17.3450   21.9917 C   0  0  0  0  0  0  0  0  0  0  0  0
   22.0514   17.4443   22.2845 O   0  5  0  0  0  0  0  0  0  0  0  0
   20.1712   16.4251   22.3554 O   0  0  0  0  0  0  0  0  0  0  0  0
   20.2607   18.4120   21.0901 C   0  0  0  0  0  0  0  0  0  0  0  0
   19.7103   17.8920   20.2970 H   0  0  0  0  0  0  0  0  0  0  0  0
   21.0697   18.9689   20.6015 H   0  0  0  0  0  0  0  0  0  0  0  0
   19.3070   19.3895   21.8238 C   0  0  0  0  0  0  0  0  0  0  0  0
   18.7977   20.0200   21.0822 H   0  0  0  0  0  0  0  0  0  0  0  0
   18.5246   18.8191   22.3438 H   0  0  0  0  0  0  0  0  0  0  0  0
   20.0483   20.2939   22.8300 C   0  0  0  0  0  0  0  0  0  0  0  0
   20.8208   20.8901   22.3267 H   0  0  0  0  0  0  0  0  0  0  0  0
   19.3487   20.9859   23.3166 H   0  0  0  0  0  0  0  0  0  0  0  0
   20.5339   19.6973   23.6136 H   0  0  0  0  0  0  0  0  0  0  0  0
  1  2  1  0  0  0  0
  1  3  2  0  0  0  0
  1  4  1  0  0  0  0
  4  5  1  0  0  0  0
  4  6  1  0  0  0  0
  4  7  1  0  0  0  0
  7  8  1  0  0  0  0
  7  9  1  0  0  0  0
  7 10  1  0  0  0  0
 10 11  1  0  0  0  0
 10 12  1  0  0  0  0
 10 13  1  0  0  0  0
M  END
> <VConfSearch Rank>
24

> <Conf_Id>
36

> <Delta U+W>
0.272

> <U+W>
-58.060

> <U>
9.781

> <W>
-67.841

> <W(PB)>
-69.537

> <W(SA)>
1.696

> <Valence>
6.123

> <Coulomb>
3.449

> <VdW>
0.209

> <VdW6>
-3.762

> <VdW12>
3.972

> <Bond>
0.078

> <Angle>
2.428

> <Pdih>
3.616

> <Idih>
0.002

> <Tether>
0.000

$$$$
VeraChem MOL file


 13 12  0  0  0  0  0  0  0  0999 V2000     
   19.2133   18.5037   19.9115 C   0  0  0  0  0  0  0  0  0  0  0  0
   19.3050   19.5794   19.3530 O   0  5  0  0  0  0  0  0  0  0  0  0
   18.7568   17.5157   19.3729 O   0  0  0  0  0  0  0  0  0  0  0  0
   19.6856   18.3555   21.3591 C   0  0  0  0  0  0  0  0  0  0  0  0
   20.4432   17.5630   21.3772 H   0  0  0  0  0  0  0  0  0  0  0  0
   18.8325   17.9965   21.9471 H   0  0  0  0  0  0  0  0  0  0  0  0
   20.2609   19.6429   22.0055 C   0  0  0  0  0  0  0  0  0  0  0  0
   21.1138   20.0026   21.4132 H   0  0  0  0  0  0  0  0  0  0  0  0
   19.5012   20.4367   21.9837 H   0  0  0  0  0  0  0  0  0  0  0  0
   20.7096   19.3981   23.4603 C   0  0  0  0  0  0  0  0  0  0  0  0
   21.4923   18.6294   23.5060 H   0  0  0  0  0  0  0  0  0  0  0  0
   21.1133   20.3193   23.9004 H   0  0  0  0  0  0  0  0  0  0  0  0
   19.8667   19.0669   24.0811 H   0  0  0  0  0  0  0  0  0  0  0  0
  1  2  1  0  0  0  0
  1  3  2  0  0  0  0
  1  4  1  0  0  0  0
  4  5  1  0  0  0  0
  4  6  1  0  0  0  0
  4  7  1  0  0  0  0
  7  8  1  0  0  0  0
  7  9  1  0  0  0  0
  7 10  1  0  0  0  0
 10 11  1  0  0  0  0
 10 12  1  0  0  0  0
 10 13  1  0  0  0  0
M  END
> <VConfSearch Rank>
25

> <Conf_Id>
0

> <Delta U+W>
0.000

> <U+W>
-58.332

> <U>
8.390

> <W>
-66.722

> <W(PB)>
-68.455

> <W(SA)>
1.733

> <Valence>
6.333

> <Coulomb>
1.215

> <VdW>
0.842

> <VdW6>
-3.344

> <VdW12>
4.186

> <Bond>
0.091

> <Angle>
2.713

> <Pdih>
3.529

> <Idih>
0.000

> <Tether>
0.000

$$$$
VeraChem MOL file


 13 12  0  0  0  0  0  0  0  0999 V2000     
   18.0416   19.3417   22.5901 C   0  0  0  0  0  0  0  0  0  0  0  0
   17.9632   19.9763   23.6228 O   0  5  0  0  0  0  0  0  0  0  0  0
   17.1973   18.5488   22.2241 O   0  0  0  0  0  0  0  0  0  0  0  0
   19.2753   19.5369   21.7153 C   0  0  0  0  0  0  0  0  0  0  0  0
   19.6087   20.5764   21.8224 H   0  0  0  0  0  0  0  0  0  0  0  0
   18.9771   19.3992   20.6689 H   0  0  0  0  0  0  0  0  0  0  0  0
   20.4286   18.5683   22.0725 C   0  0  0  0  0  0  0  0  0  0  0  0
   20.7121   18.7082   23.1250 H   0  0  0  0  0  0  0  0  0  0  0  0
   20.0804   17.5308   21.9712 H   0  0  0  0  0  0  0  0  0  0  0  0
   21.6597   18.7909   21.1713 C   0  0  0  0  0  0  0  0  0  0  0  0
   22.4660   18.0957   21.4394 H   0  0  0  0  0  0  0  0  0  0  0  0
   21.4081   18.6273   20.1152 H   0  0  0  0  0  0  0  0  0  0  0  0
   22.0446   19.8137   21.2779 H   0  0  0  0  0  0  0  0  0  0  0  0
  1  2  1  0  0  0  0
  1  3  2  0  0  0  0
  1  4  1  0  0  0  0
  4  5  1  0  0  0  0
  4  6  1  0  0  0  0
  4  7  1  0  0  0  0
  7  8  1  0  0  0  0
  7  9  1  0  0  0  0
  7 10  1  0  0  0  0
 10 11  1  0  0  0  0
 10 12  1  0  0  0  0
 10 13  1  0  0  0  0
M  END
> <VConfSearch Rank>
26

> <Conf_Id>
1

> <Delta U+W>
-1.339

> <U+W>
-59.672

> <U>
7.389

> <W>
-67.061

> <W(PB)>
-68.767

> <W(SA)>
1.707

> <Valence>
5.822

> <Coulomb>
1.255

> <VdW>
0.312

> <VdW6>
-3.061

> <VdW12>
3.372

> <Bond>
0.059

> <Angle>
2.241

> <Pdih>
3.522

> <Idih>
0.000

> <Tether>
0.000

$$$$
VeraChem MOL file


 13 12  0  0  0  0  0  0  0  0999 V2000     
   20.8676   18.3171   23.4924 C   0  0  0  0  0  0  0  0  0  0  0  0
   20.7677   17.1179   23.6593 O   0  5  0  0  0  0  0  0  0  0  0  0
   21.8712   18.9487   23.7570 O   0  0  0  0  0  0  0  0  0  0  0  0
   19.6548   19.0732   22.9557 C   0  0  0  0  0  0  0  0  0  0  0  0
   19.7869   20.1422   23.1633 H   0  0  0  0  0  0  0  0  0  0  0  0
   18.7825   18.7440   23.5329 H   0  0  0  0  0  0  0  0  0  0  0  0
   19.3866   18.8519   21.4449 C   0  0  0  0  0  0  0  0  0  0  0  0
   19.2970   17.7756   21.2411 H   0  0  0  0  0  0  0  0  0  0  0  0
   18.4212   19.3046   21.1806 H   0  0  0  0  0  0  0  0  0  0  0  0
   20.4893   19.4608   20.5542 C   0  0  0  0  0  0  0  0  0  0  0  0
   21.4637   18.9986   20.7609 H   0  0  0  0  0  0  0  0  0  0  0  0
   20.2593   19.3041   19.4923 H   0  0  0  0  0  0  0  0  0  0  0  0
   20.5805   20.5413   20.7261 H   0  0  0  0  0  0  0  0  0  0  0  0
  1  2  1  0  0  0  0
  1  3  2  0  0  0  0
  1  4  1  0  0  0  0
  4  5  1  0  0  0  0
  4  6  1  0  0  0  0
  4  7  1  0  0  0  0
  7  8  1  0  0  0  0
  7  9  1  0  0  0  0
  7 10  1  0  0  0  0
 10 11  1  0  0  0  0
 10 12  1  0  0  0  0
 10 13  1  0  0  0  0
M  END
> <VConfSearch Rank>
27

> <Conf_Id>
4

> <Delta U+W>
0.281

> <U+W>
-58.051

> <U>
9.781

> <W>
-67.832

> <W(PB)>
-69.535

> <W(SA)>
1.703

> <Valence>
6.123

> <Coulomb>
3.449

> <VdW>
0.209

> <VdW6>
-3.762

> <VdW12>
3.972

> <Bond>
0.078

> <Angle>
2.428

> <Pdih>
3.616

> <Idih>
0.002

> <Tether>
0.000

$$$$
VeraChem MOL file


 13 12  0  0  0  0  0  0  0  0999 V2000     
   20.6568   17.3151   22.4296 C   0  0  0  0  0  0  0  0  0  0  0  0
   21.8676   17.2491   22.3541 O   0  5  0  0  0  0  0  0  0  0  0  0
   20.0076   16.7495   23.2868 O   0  0  0  0  0  0  0  0  0  0  0  0
   19.9066   18.1210   21.3722 C   0  0  0  0  0  0  0  0  0  0  0  0
   19.0814   17.4965   21.0095 H   0  0  0  0  0  0  0  0  0  0  0  0
   20.5750   18.2894   20.5189 H   0  0  0  0  0  0  0  0  0  0  0  0
   19.3442   19.4718   21.8845 C   0  0  0  0  0  0  0  0  0  0  0  0
   18.6979   19.9091   21.1112 H   0  0  0  0  0  0  0  0  0  0  0  0
   18.7093   19.2959   22.7642 H   0  0  0  0  0  0  0  0  0  0  0  0
   20.4580   20.4787   22.2388 C   0  0  0  0  0  0  0  0  0  0  0  0
   21.0916   20.6860   21.3665 H   0  0  0  0  0  0  0  0  0  0  0  0
   20.0264   21.4292   22.5786 H   0  0  0  0  0  0  0  0  0  0  0  0
   21.0988   20.0919   23.0422 H   0  0  0  0  0  0  0  0  0  0  0  0
  1  2  1  0  0  0  0
  1  3  2  0  0  0  0
  1  4  1  0  0  0  0
  4  5  1  0  0  0  0
  4  6  1  0  0  0  0
  4  7  1  0  0  0  0
  7  8  1  0  0  0  0
  7  9  1  0  0  0  0
  7 10  1  0  0  0  0
 10 11  1  0  0  0  0
 10 12  1  0  0  0  0
 10 13  1  0  0  0  0
M  END
> <VConfSearch Rank>
28

> <Conf_Id>
36

> <Delta U+W>
0.272

> <U+W>
-58.060

> <U>
9.781

> <W>
-67.841

> <W(PB)>
-69.537

> <W(SA)>
1.696

> <Valence>
6.123

> <Coulomb>
3.449

> <VdW>
0.209

> <VdW6>
-3.762

> <VdW12>
3.972

> <Bond>
0.078

> <Angle>
2.428

> <Pdih>
3.616

> <Idih>
0.002

> <Tether>
0.000

$$$$
VeraChem MOL file


 13 12  0  0  0  0  0  0  0  0999 V2000     
   21.1283   18.0888   23.3999 C   0  0  0  0  0  0  0  0  0  0  0  0
   22.1122   18.8023   23.4128 O   0  5  0  0  0  0  0  0  0  0  0  0
   20.9817   17.1507   24.1571 O   0  0  0  0  0  0  0  0  0  0  0  0
   20.0060   18.3586   22.3957 C   0  0  0  0  0  0  0  0  0  0  0  0
   19.0831   18.5094   22.9684 H   0  0  0  0  0  0  0  0  0  0  0  0
   19.8699   17.4460   21.8033 H   0  0  0  0  0  0  0  0  0  0  0  0
   20.2370   19.5660   21.4497 C   0  0  0  0  0  0  0  0  0  0  0  0
   20.3761   20.4790   22.0454 H   0  0  0  0  0  0  0  0  0  0  0  0
   21.1639   19.4144   20.8790 H   0  0  0  0  0  0  0  0  0  0  0  0
   19.0573   19.7602   20.4758 C   0  0  0  0  0  0  0  0  0  0  0  0
   18.1230   19.9447   21.0222 H   0  0  0  0  0  0  0  0  0  0  0  0
   19.2387   20.6181   19.8152 H   0  0  0  0  0  0  0  0  0  0  0  0
   18.9171   18.8715   19.8464 H   0  0  0  0  0  0  0  0  0  0  0  0
  1  2  1  0  0  0  0
  1  3  2  0  0  0  0
  1  4  1  0  0  0  0
  4  5  1  0  0  0  0
  4  6  1  0  0  0  0
  4  7  1  0  0  0  0
  7  8  1  0  0  0  0
  7  9  1  0  0  0  0
  7 10  1  0  0  0  0
 10 11  1  0  0  0  0
 10 12  1  0  0  0  0
 10 13  1  0  0  0  0
M  END
> <VConfSearch Rank>
29

> <Conf_Id>
0

> <Delta U+W>
0.000

> <U+W>
-58.332

> <U>
8.390

> <W>
-66.722

> <W(PB)>
-68.455

> <W(SA)>
1.733

> <Valence>
6.333

> <Coulomb>
1.215

> <VdW>
0.842

> <VdW6>
-3.344

> <VdW12>
4.186

> <Bond>
0.091

> <Angle>
2.713

> <Pdih>
3.529

> <Idih>
0.000

> <Tether>
0.000

$$$$
VeraChem MOL file


 13 12  0  0  0  0  0  0  0  0999 V2000     
   22.0792   18.7382   21.8813 C   0  0  0  0  0  0  0  0  0  0  0  0
   22.5086   17.8580   21.1629 O   0  5  0  0  0  0  0  0  0  0  0  0
   22.6515   19.1294   22.8787 O   0  0  0  0  0  0  0  0  0  0  0  0
   20.7401   19.3734   21.5221 C   0  0  0  0  0  0  0  0  0  0  0  0
   20.6442   19.3730   20.4295 H   0  0  0  0  0  0  0  0  0  0  0  0
   20.7621   20.4215   21.8444 H   0  0  0  0  0  0  0  0  0  0  0  0
   19.5344   18.6443   22.1629 C   0  0  0  0  0  0  0  0  0  0  0  0
   19.5283   17.5935   21.8411 H   0  0  0  0  0  0  0  0  0  0  0  0
   19.6461   18.6423   23.2562 H   0  0  0  0  0  0  0  0  0  0  0  0
   18.1971   19.3099   21.7808 C   0  0  0  0  0  0  0  0  0  0  0  0
   17.3549   18.7795   22.2441 H   0  0  0  0  0  0  0  0  0  0  0  0
   18.1674   20.3541   22.1190 H   0  0  0  0  0  0  0  0  0  0  0  0
   18.0487   19.2971   20.6930 H   0  0  0  0  0  0  0  0  0  0  0  0
  1  2  1  0  0  0  0
  1  3  2  0  0  0  0
  1  4  1  0  0  0  0
  4  5  1  0  0  0  0
  4  6  1  0  0  0  0
  4  7  1  0  0  0  0
  7  8  1  0  0  0  0
  7  9  1  0  0  0  0
  7 10  1  0  0  0  0
 10 11  1  0  0  0  0
 10 12  1  0  0  0  0
 10 13  1  0  0  0  0
M  END
> <VConfSearch Rank>
30

> <Conf_Id>
1

> <Delta U+W>
-1.339

> <U+W>
-59.672

> <U>
7.389

> <W>
-67.061

> <W(PB)>
-68.767

> <W(SA)>
1.707

> <Valence>
5.822

> <Coulomb>
1.255

> <VdW>
0.312

> <VdW6>
-3.061

> <VdW12>
3.372

> <Bond>
0.059

> <Angle>
2.241

> <Pdih>
3.522

> <Idih>
0.000

> <Tether>
0.000

$$$$
VeraChem MOL file


 13 12  0  0  0  0  0  0  0  0999 V2000     
   19.2122   19.6570   23.3761 C   0  0  0  0  0  0  0  0  0  0  0  0
   18.1787   19.0891   23.6686 O   0  5  0  0  0  0  0  0  0  0  0  0
   19.9892   20.0992   24.1987 O   0  0  0  0  0  0  0  0  0  0  0  0
   19.5310   19.8556   21.8963 C   0  0  0  0  0  0  0  0  0  0  0  0
   20.2948   20.6374   21.8033 H   0  0  0  0  0  0  0  0  0  0  0  0
   18.6239   20.2403   21.4151 H   0  0  0  0  0  0  0  0  0  0  0  0
   19.9941   18.5675   21.1685 C   0  0  0  0  0  0  0  0  0  0  0  0
   19.2410   17.7783   21.3029 H   0  0  0  0  0  0  0  0  0  0  0  0
   20.0545   18.7657   20.0896 H   0  0  0  0  0  0  0  0  0  0  0  0
   21.3662   18.0686   21.6668 C   0  0  0  0  0  0  0  0  0  0  0  0
   21.3308   17.8180   22.7353 H   0  0  0  0  0  0  0  0  0  0  0  0
   21.6730   17.1685   21.1184 H   0  0  0  0  0  0  0  0  0  0  0  0
   22.1389   18.8349   21.5212 H   0  0  0  0  0  0  0  0  0  0  0  0
  1  2  1  0  0  0  0
  1  3  2  0  0  0  0
  1  4  1  0  0  0  0
  4  5  1  0  0  0  0
  4  6  1  0  0  0  0
  4  7  1  0  0  0  0
  7  8  1  0  0  0  0
  7  9  1  0  0  0  0
  7 10  1  0  0  0  0
 10 11  1  0  0  0  0
 10 12  1  0  0  0  0
 10 13  1  0  0  0  0
M  END
> <VConfSearch Rank>
31

> <Conf_Id>
4

> <Delta U+W>
0.281

> <U+W>
-58.051

> <U>
9.781

> <W>
-67.832

> <W(PB)>
-69.535

> <W(SA)>
1.703

> <Valence>
6.123

> <Coulomb>
3.449

> <VdW>
0.209

> <VdW6>
-3.762

> <VdW12>
3.972

> <Bond>
0.078

> <Angle>
2.428

> <Pdih>
3.616

> <Idih>
0.002

> <Tether>
0.000

$$$$
VeraChem MOL file


 13 12  0  0  0  0  0  0  0  0999 V2000     
   20.3934   18.3060   23.6387 C   0  0  0  0  0  0  0  0  0  0  0  0
   21.4792   17.7628   23.6815 O   0  5  0  0  0  0  0  0  0  0  0  0
   19.9307   18.9510   24.5585 O   0  0  0  0  0  0  0  0  0  0  0  0
   19.5487   18.1413   22.3778 C   0  0  0  0  0  0  0  0  0  0  0  0
   18.5380   17.8589   22.6958 H   0  0  0  0  0  0  0  0  0  0  0  0
   19.9448   17.2992   21.7969 H   0  0  0  0  0  0  0  0  0  0  0  0
   19.4745   19.4122   21.4931 C   0  0  0  0  0  0  0  0  0  0  0  0
   18.7334   19.2542   20.6976 H   0  0  0  0  0  0  0  0  0  0  0  0
   19.1160   20.2589   22.0951 H   0  0  0  0  0  0  0  0  0  0  0  0
   20.8329   19.7661   20.8531 C   0  0  0  0  0  0  0  0  0  0  0  0
   21.1993   18.9409   20.2284 H   0  0  0  0  0  0  0  0  0  0  0  0
   20.7412   20.6573   20.2188 H   0  0  0  0  0  0  0  0  0  0  0  0
   21.5890   19.9744   21.6217 H   0  0  0  0  0  0  0  0  0  0  0  0
  1  2  1  0  0  0  0
  1  3  2  0  0  0  0
  1  4  1  0  0  0  0
  4  5  1  0  0  0  0
  4  6  1  0  0  0  0
  4  7  1  0  0  0  0
  7  8  1  0  0  0  0
  7  9  1  0  0  0  0
  7 10  1  0  0  0  0
 10 11  1  0  0  0  0
 10 12  1  0  0  0  0
 10 13  1  0  0  0  0
M  END
> <VConfSearch Rank>
32

> <Conf_Id>
36

> <Delta U+W>
0.272

> <U+W>
-58.060

> <U>
9.781

> <W>
-67.841

> <W(PB)>
-69.537

> <W(SA)>
1.696

> <Valence>
6.123

> <Coulomb>
3.449

> <VdW>
0.209

> <VdW6>
-3.762

> <VdW12>
3.972

> <Bond>
0.078

> <Angle>
2.428

> <Pdih>
3.616

> <Idih>
0.002

> <Tether>
0.000

$$$$
VeraChem MOL file


 13 12  0  0  0  0  0  0  0  0999 V2000     
   19.0067   20.6763   20.9794 C   0  0  0  0  0  0  0  0  0  0  0  0
   19.0771   20.3988   19.7982 O   0  5  0  0  0  0  0  0  0  0  0  0
   18.4651   21.6821   21.3914 O   0  0  0  0  0  0  0  0  0  0  0  0
   19.6190   19.7360   22.0195 C   0  0  0  0  0  0  0  0  0  0  0  0
   18.8188   19.4469   22.7112 H   0  0  0  0  0  0  0  0  0  0  0  0
   20.3477   20.3167   22.5976 H   0  0  0  0  0  0  0  0  0  0  0  0
   20.2996   18.4651   21.4473 C   0  0  0  0  0  0  0  0  0  0  0  0
   19.5685   17.8861   20.8659 H   0  0  0  0  0  0  0  0  0  0  0  0
   21.0991   18.7571   20.7521 H   0  0  0  0  0  0  0  0  0  0  0  0
   20.8861   17.5805   22.5659 C   0  0  0  0  0  0  0  0  0  0  0  0
   20.1004   17.2494   23.2577 H   0  0  0  0  0  0  0  0  0  0  0  0
   21.3630   16.6871   22.1421 H   0  0  0  0  0  0  0  0  0  0  0  0
   21.6433   18.1274   23.1430 H   0  0  0  0  0  0  0  0  0  0  0  0
  1  2  1  0  0  0  0
  1  3  2  0  0  0  0
  1  4  1  0  0  0  0
  4  5  1  0  0  0  0
  4  6  1  0  0  0  0
  4  7  1  0  0  0  0
  7  8  1  0  0  0  0
  7  9  1  0  0  0  0
  7 10  1  0  0  0  0
 10 11  1  0  0  0  0
 10 12  1  0  0  0  0
 10 13  1  0  0  0  0
M  END
> <VConfSearch Rank>
33

> <Conf_Id>
0

> <Delta U+W>
0.000

> <U+W>
-58.332

> <U>
8.390

> <W>
-66.722

> <W(PB)>
-68.455

> <W(SA)>
1.733

> <Valence>
6.333

> <Coulomb>
1.215

> <VdW>
0.842

> <VdW6>
-3.344

> <VdW12>
4.186

> <Bond>
0.091

> <Angle>
2.713

> <Pdih>
3.529

> <Idih>
0.000

> <Tether>
0.000

$$$$
VeraChem MOL file


 13 12  0  0  0  0  0  0  0  0999 V2000     
   18.4797   20.1312   20.8374 C   0  0  0  0  0  0  0  0  0  0  0  0
   18.6482   20.3136   19.6484 O   0  5  0  0  0  0  0  0  0  0  0  0
   17.7919   20.8488   21.5355 O   0  0  0  0  0  0  0  0  0  0  0  0
   19.1847   18.9484   21.4927 C   0  0  0  0  0  0  0  0  0  0  0  0
   19.2568   18.1415   20.7533 H   0  0  0  0  0  0  0  0  0  0  0  0
   18.5506   18.5828   22.3095 H   0  0  0  0  0  0  0  0  0  0  0  0
   20.5917   19.3058   22.0299 C   0  0  0  0  0  0  0  0  0  0  0  0
   21.2146   19.6799   21.2054 H   0  0  0  0  0  0  0  0  0  0  0  0
   20.5083   20.1212   22.7619 H   0  0  0  0  0  0  0  0  0  0  0  0
   21.2772   18.0902   22.6855 C   0  0  0  0  0  0  0  0  0  0  0  0
   22.2726   18.3630   23.0599 H   0  0  0  0  0  0  0  0  0  0  0  0
   20.6872   17.7162   23.5326 H   0  0  0  0  0  0  0  0  0  0  0  0
   21.3990   17.2716   21.9641 H   0  0  0  0  0  0  0  0  0  0  0  0
  1  2  1  0  0  0  0
  1  3  2  0  0  0  0
  1  4  1  0  0  0  0
  4  5  1  0  0  0  0
  4  6  1  0  0  0  0
  4  7  1  0  0  0  0
  7  8  1  0  0  0  0
  7  9  1  0  0  0  0
  7 10  1  0  0  0  0
 10 11  1  0  0  0  0
 10 12  1  0  0  0  0
 10 13  1  0  0  0  0
M  END
> <VConfSearch Rank>
34

> <Conf_Id>
1

> <Delta U+W>
-1.339

> <U+W>
-59.672

> <U>
7.389

> <W>
-67.061

> <W(PB)>
-68.767

> <W(SA)>
1.707

> <Valence>
5.822

> <Coulomb>
1.255

> <VdW>
0.312

> <VdW6>
-3.061

> <VdW12>
3.372

> <Bond>
0.059

> <Angle>
2.241

> <Pdih>
3.522

> <Idih>
0.000

> <Tether>
0.000

$$$$
VeraChem MOL file


 13 12  0  0  0  0  0  0  0  0999 V2000     
   20.5696   17.4655   21.1271 C   0  0  0  0  0  0  0  0  0  0  0  0
   19.7267   17.0141   20.3775 O   0  5  0  0  0  0  0  0  0  0  0  0
   21.7566   17.4806   20.8685 O   0  0  0  0  0  0  0  0  0  0  0  0
   20.1144   18.0091   22.4791 C   0  0  0  0  0  0  0  0  0  0  0  0
   20.9850   18.0729   23.1434 H   0  0  0  0  0  0  0  0  0  0  0  0
   19.4353   17.2681   22.9176 H   0  0  0  0  0  0  0  0  0  0  0  0
   19.3993   19.3824   22.4029 C   0  0  0  0  0  0  0  0  0  0  0  0
   18.5539   19.3184   21.7034 H   0  0  0  0  0  0  0  0  0  0  0  0
   18.9764   19.6232   23.3878 H   0  0  0  0  0  0  0  0  0  0  0  0
   20.3484   20.5191   21.9704 C   0  0  0  0  0  0  0  0  0  0  0  0
   20.7564   20.3327   20.9681 H   0  0  0  0  0  0  0  0  0  0  0  0
   19.8163   21.4790   21.9457 H   0  0  0  0  0  0  0  0  0  0  0  0
   21.1897   20.6150   22.6692 H   0  0  0  0  0  0  0  0  0  0  0  0
  1  2  1  0  0  0  0
  1  3  2  0  0  0  0
  1  4  1  0  0  0  0
  4  5  1  0  0  0  0
  4  6  1  0  0  0  0
  4  7  1  0  0  0  0
  7  8  1  0  0  0  0
  7  9  1  0  0  0  0
  7 10  1  0  0  0  0
 10 11  1  0  0  0  0
 10 12  1  0  0  0  0
 10 13  1  0  0  0  0
M  END
> <VConfSearch Rank>
35

> <Conf_Id>
4

> <Delta U+W>
0.281

> <U+W>
-58.051

> <U>
9.781

> <W>
-67.832

> <W(PB)>
-69.535

> <W(SA)>
1.703

> <Valence>
6.123

> <Coulomb>
3.449

> <VdW>
0.209

> <VdW6>
-3.762

> <VdW12>
3.972

> <Bond>
0.078

> <Angle>
2.428

> <Pdih>
3.616

> <Idih>
0.002

> <Tether>
0.000

$$$$
VeraChem MOL file


 13 12  0  0  0  0  0  0  0  0999 V2000     
   20.3039   20.7180   21.6604 C   0  0  0  0  0  0  0  0  0  0  0  0
   21.3610   21.1093   22.1137 O   0  5  0  0  0  0  0  0  0  0  0  0
   19.8397   21.1114   20.6088 O   0  0  0  0  0  0  0  0  0  0  0  0
   19.4975   19.7055   22.4698 C   0  0  0  0  0  0  0  0  0  0  0  0
   18.4641   20.0697   22.5125 H   0  0  0  0  0  0  0  0  0  0  0  0
   19.8740   19.6993   23.5001 H   0  0  0  0  0  0  0  0  0  0  0  0
   19.5142   18.2691   21.8867 C   0  0  0  0  0  0  0  0  0  0  0  0
   18.7951   17.6484   22.4383 H   0  0  0  0  0  0  0  0  0  0  0  0
   19.1747   18.2925   20.8416 H   0  0  0  0  0  0  0  0  0  0  0  0
   20.9094   17.6157   21.9667 C   0  0  0  0  0  0  0  0  0  0  0  0
   21.2586   17.5621   23.0062 H   0  0  0  0  0  0  0  0  0  0  0  0
   20.8820   16.5947   21.5645 H   0  0  0  0  0  0  0  0  0  0  0  0
   21.6468   18.1875   21.3878 H   0  0  0  0  0  0  0  0  0  0  0  0
  1  2  1  0  0  0  0
  1  3  2  0  0  0  0
  1  4  1  0  0  0  0
  4  5  1  0  0  0  0
  4  6  1  0  0  0  0
  4  7  1  0  0  0  0
  7  8  1  0  0  0  0
  7  9  1  0  0  0  0
  7 10  1  0  0  0  0
 10 11  1  0  0  0  0
 10 12  1  0  0  0  0
 10 13  1  0  0  0  0
M  END
> <VConfSearch Rank>
36

> <Conf_Id>
36

> <Delta U+W>
0.272

> <U+W>
-58.060

> <U>
9.781

> <W>
-67.841

> <W(PB)>
-69.537

> <W(SA)>
1.696

> <Valence>
6.123

> <Coulomb>
3.449

> <VdW>
0.209

> <VdW6>
-3.762

> <VdW12>
3.972

> <Bond>
0.078

> <Angle>
2.428

> <Pdih>
3.616

> <Idih>
0.002

> <Tether>
0.000

$$$$
VeraChem MOL file


 13 12  0  0  0  0  0  0  0  0999 V2000     
   18.0833   19.3946   21.0262 C   0  0  0  0  0  0  0  0  0  0  0  0
   18.3766   20.1141   20.0915 O   0  5  0  0  0  0  0  0  0  0  0  0
   16.9387   19.0863   21.2897 O   0  0  0  0  0  0  0  0  0  0  0  0
   19.1836   18.8362   21.9307 C   0  0  0  0  0  0  0  0  0  0  0  0
   19.1002   17.7430   21.9116 H   0  0  0  0  0  0  0  0  0  0  0  0
   18.9597   19.1566   22.9552 H   0  0  0  0  0  0  0  0  0  0  0  0
   20.6289   19.2565   21.5559 C   0  0  0  0  0  0  0  0  0  0  0  0
   20.8503   18.9371   20.5280 H   0  0  0  0  0  0  0  0  0  0  0  0
   20.7096   20.3524   21.5727 H   0  0  0  0  0  0  0  0  0  0  0  0
   21.6671   18.6480   22.5201 C   0  0  0  0  0  0  0  0  0  0  0  0
   21.6278   17.5509   22.4985 H   0  0  0  0  0  0  0  0  0  0  0  0
   22.6827   18.9562   22.2393 H   0  0  0  0  0  0  0  0  0  0  0  0
   21.4859   18.9775   23.5516 H   0  0  0  0  0  0  0  0  0  0  0  0
  1  2  1  0  0  0  0
  1  3  2  0  0  0  0
  1  4  1  0  0  0  0
  4  5  1  0  0  0  0
  4  6  1  0  0  0  0
  4  7  1  0  0  0  0
  7  8  1  0  0  0  0
  7  9  1  0  0  0  0
  7 10  1  0  0  0  0
 10 11  1  0  0  0  0
 10 12  1  0  0  0  0
 10 13  1  0  0  0  0
M  END
> <VConfSearch Rank>
37

> <Conf_Id>
0

> <Delta U+W>
0.000

> <U+W>
-58.332

> <U>
8.390

> <W>
-66.722

> <W(PB)>
-68.455

> <W(SA)>
1.733

> <Valence>
6.333

> <Coulomb>
1.215

> <VdW>
0.842

> <VdW6>
-3.344

> <VdW12>
4.186

> <Bond>
0.091

> <Angle>
2.713

> <Pdih>
3.529

> <Idih>
0.000

> <Tether>
0.000

$$$$
VeraChem MOL file


 13 12  0  0  0  0  0  0  0  0999 V2000     
   21.7189   17.9945   21.2178 C   0  0  0  0  0  0  0  0  0  0  0  0
   22.4605   17.6218   22.1047 O   0  5  0  0  0  0  0  0  0  0  0  0
   22.0839   18.1908   20.0761 O   0  0  0  0  0  0  0  0  0  0  0  0
   20.2547   18.2477   21.5607 C   0  0  0  0  0  0  0  0  0  0  0  0
   19.9617   17.5431   22.3485 H   0  0  0  0  0  0  0  0  0  0  0  0
   19.6512   18.0123   20.6756 H   0  0  0  0  0  0  0  0  0  0  0  0
   19.9840   19.7013   22.0186 C   0  0  0  0  0  0  0  0  0  0  0  0
   20.6009   19.9290   22.8992 H   0  0  0  0  0  0  0  0  0  0  0  0
   20.2902   20.3983   21.2259 H   0  0  0  0  0  0  0  0  0  0  0  0
   18.4965   19.9246   22.3574 C   0  0  0  0  0  0  0  0  0  0  0  0
   18.3245   20.9599   22.6797 H   0  0  0  0  0  0  0  0  0  0  0  0
   17.8613   19.7318   21.4829 H   0  0  0  0  0  0  0  0  0  0  0  0
   18.1744   19.2589   23.1690 H   0  0  0  0  0  0  0  0  0  0  0  0
  1  2  1  0  0  0  0
  1  3  2  0  0  0  0
  1  4  1  0  0  0  0
  4  5  1  0  0  0  0
  4  6  1  0  0  0  0
  4  7  1  0  0  0  0
  7  8  1  0  0  0  0
  7  9  1  0  0  0  0
  7 10  1  0  0  0  0
 10 11  1  0  0  0  0
 10 12  1  0  0  0  0
 10 13  1  0  0  0  0
M  END
> <VConfSearch Rank>
38

> <Conf_Id>
1

> <Delta U+W>
-1.339

> <U+W>
-59.672

> <U>
7.389

> <W>
-67.061

> <W(PB)>
-68.767

> <W(SA)>
1.707

> <Valence>
5.822

> <Coulomb>
1.255

> <VdW>
0.312

> <VdW6>
-3.061

> <VdW12>
3.372

> <Bond>
0.059

> <Angle>
2.241

> <Pdih>
3.522

> <Idih>
0.000

> <Tether>
0.000

$$$$
VeraChem MOL file


 13 12  0  0  0  0  0  0  0  0999 V2000     
   19.8728   17.5732   20.9005 C   0  0  0  0  0  0  0  0  0  0  0  0
   18.8447   17.5831   20.2531 O   0  5  0  0  0  0  0  0  0  0  0  0
   20.9418   17.2074   20.4539 O   0  0  0  0  0  0  0  0  0  0  0  0
   19.8079   18.0098   22.3620 C   0  0  0  0  0  0  0  0  0  0  0  0
   20.7062   17.6478   22.8771 H   0  0  0  0  0  0  0  0  0  0  0  0
   18.9529   17.4972   22.8187 H   0  0  0  0  0  0  0  0  0  0  0  0
   19.6583   19.5399   22.5612 C   0  0  0  0  0  0  0  0  0  0  0  0
   18.7793   19.8986   22.0074 H   0  0  0  0  0  0  0  0  0  0  0  0
   19.4687   19.7477   23.6231 H   0  0  0  0  0  0  0  0  0  0  0  0
   20.9113   20.3192   22.1110 C   0  0  0  0  0  0  0  0  0  0  0  0
   21.1058   20.1695   21.0407 H   0  0  0  0  0  0  0  0  0  0  0  0
   20.7802   21.3953   22.2836 H   0  0  0  0  0  0  0  0  0  0  0  0
   21.7985   19.9914   22.6685 H   0  0  0  0  0  0  0  0  0  0  0  0
  1  2  1  0  0  0  0
  1  3  2  0  0  0  0
  1  4  1  0  0  0  0
  4  5  1  0  0  0  0
  4  6  1  0  0  0  0
  4  7  1  0  0  0  0
  7  8  1  0  0  0  0
  7  9  1  0  0  0  0
  7 10  1  0  0  0  0
 10 11  1  0  0  0  0
 10 12  1  0  0  0  0
 10 13  1  0  0  0  0
M  END
> <VConfSearch Rank>
39

> <Conf_Id>
4

> <Delta U+W>
0.281

> <U+W>
-58.051

> <U>
9.781

> <W>
-67.832

> <W(PB)>
-69.535

> <W(SA)>
1.703

> <Valence>
6.123

> <Coulomb>
3.449

> <VdW>
0.209

> <VdW6>
-3.762

> <VdW12>
3.972

> <Bond>
0.078

> <Angle>
2.428

> <Pdih>
3.616

> <Idih>
0.002

> <Tether>
0.000

$$$$
VeraChem MOL file


 13 12  0  0  0  0  0  0  0  0999 V2000     
   18.8863   19.9979   22.7938 C   0  0  0  0  0  0  0  0  0  0  0  0
   18.6202   20.9426   22.0779 O   0  5  0  0  0  0  0  0  0  0  0  0
   18.0609   19.4163   23.4695 O   0  0  0  0  0  0  0  0  0  0  0  0
   20.3396   19.5380   22.8782 C   0  0  0  0  0  0  0  0  0  0  0  0
   20.5866   19.4280   23.9409 H   0  0  0  0  0  0  0  0  0  0  0  0
   20.9835   20.3338   22.4842 H   0  0  0  0  0  0  0  0  0  0  0  0
   20.6271   18.2047   22.1414 C   0  0  0  0  0  0  0  0  0  0  0  0
   21.6479   17.8751   22.3788 H   0  0  0  0  0  0  0  0  0  0  0  0
   19.9487   17.4246   22.5145 H   0  0  0  0  0  0  0  0  0  0  0  0
   20.4821   18.3328   20.6108 C   0  0  0  0  0  0  0  0  0  0  0  0
   21.1682   19.0925   20.2139 H   0  0  0  0  0  0  0  0  0  0  0  0
   20.7112   17.3783   20.1193 H   0  0  0  0  0  0  0  0  0  0  0  0
   19.4587   18.6186   20.3339 H   0  0  0  0  0  0  0  0  0  0  0  0
  1  2  1  0  0  0  0
  1  3  2  0  0  0  0
  1  4  1  0  0  0  0
  4  5  1  0  0  0  0
  4  6  1  0  0  0  0
  4  7  1  0  0  0  0
  7  8  1  0  0  0  0
  7  9  1  0  0  0  0
  7 10  1  0  0  0  0
 10 11  1  0  0  0  0
 10 12  1  0  0  0  0
 10 13  1  0  0  0  0
M  END
> <VConfSearch Rank>
40

> <Conf_Id>
36

> <Delta U+W>
0.272

> <U+W>
-58.060

> <U>
9.781

> <W>
-67.841

> <W(PB)>
-69.537

> <W(SA)>
1.696

> <Valence>
6.123

> <Coulomb>
3.449

> <VdW>
0.209

> <VdW6>
-3.762

> <VdW12>
3.972

> <Bond>
0.078

> <Angle>
2.428

> <Pdih>
3.616

> <Idih>
0.002

> <Tether>
0.000

$$$$
VeraChem MOL file


 13 12  0  0  0  0  0  0  0  0999 V2000     
   19.3616   17.3226   22.9587 C   0  0  0  0  0  0  0  0  0  0  0  0
   19.5611   17.7348   24.0845 O   0  5  0  0  0  0  0  0  0  0  0  0
   18.9026   16.2220   22.7290 O   0  0  0  0  0  0  0  0  0  0  0  0
   19.6940   18.2066   21.7550 C   0  0  0  0  0  0  0  0  0  0  0  0
   18.7736   18.3240   21.1706 H   0  0  0  0  0  0  0  0  0  0  0  0
   20.4031   17.6532   21.1279 H   0  0  0  0  0  0  0  0  0  0  0  0
   20.2776   19.6025   22.0967 C   0  0  0  0  0  0  0  0  0  0  0  0
   19.5667   20.1542   22.7275 H   0  0  0  0  0  0  0  0  0  0  0  0
   21.1981   19.4827   22.6849 H   0  0  0  0  0  0  0  0  0  0  0  0
   20.5808   20.4199   20.8248 C   0  0  0  0  0  0  0  0  0  0  0  0
   19.6692   20.5803   20.2342 H   0  0  0  0  0  0  0  0  0  0  0  0
   20.9925   21.4034   21.0864 H   0  0  0  0  0  0  0  0  0  0  0  0
   21.3137   19.9033   20.1911 H   0  0  0  0  0  0  0  0  0  0  0  0
  1  2  1  0  0  0  0
  1  3  2  0  0  0  0
  1  4  1  0  0  0  0
  4  5  1  0  0  0  0
  4  6  1  0  0  0  0
  4  7  1  0  0  0  0
  7  8  1  0  0  0  0
  7  9  1  0  0  0  0
  7 10  1  0  0  0  0
 10 11  1  0  0  0  0
 10 12  1  0  0  0  0
 10 13  1  0  0  0  0
M  END
> <VConfSearch Rank>
41

> <Conf_Id>
0

> <Delta U+W>
0.000

> <U+W>
-58.332

> <U>
8.390

> <W>
-66.722

> <W(PB)>
-68.455

> <W(SA)>
1.733

> <Valence>
6.333

> <Coulomb>
1.215

> <VdW>
0.842

> <VdW6>
-3.344

> <VdW12>
4.186

> <Bond>
0.091

> <Angle>
2.713

> <Pdih>
3.529

> <Idih>
0.000

> <Tether>
0.000

$$$$
VeraChem MOL file


 13 12  0  0  0  0  0  0  0  0999 V2000     
   21.6069   20.3519   21.4830 C   0  0  0  0  0  0  0  0  0  0  0  0
   22.6437   20.0857   22.0572 O   0  5  0  0  0  0  0  0  0  0  0  0
   21.3160   21.4696   21.1071 O   0  0  0  0  0  0  0  0  0  0  0  0
   20.6085   19.2256   21.2378 C   0  0  0  0  0  0  0  0  0  0  0  0
   21.1720   18.2969   21.0857 H   0  0  0  0  0  0  0  0  0  0  0  0
   20.0771   19.4382   20.3022 H   0  0  0  0  0  0  0  0  0  0  0  0
   19.5975   19.0514   22.3968 C   0  0  0  0  0  0  0  0  0  0  0  0
   20.1413   18.8488   23.3301 H   0  0  0  0  0  0  0  0  0  0  0  0
   19.0461   19.9902   22.5464 H   0  0  0  0  0  0  0  0  0  0  0  0
   18.6032   17.9063   22.1187 C   0  0  0  0  0  0  0  0  0  0  0  0
   17.8952   17.7983   22.9507 H   0  0  0  0  0  0  0  0  0  0  0  0
   18.0258   18.1007   21.2053 H   0  0  0  0  0  0  0  0  0  0  0  0
   19.1294   16.9506   21.9951 H   0  0  0  0  0  0  0  0  0  0  0  0
  1  2  1  0  0  0  0
  1  3  2  0  0  0  0
  1  4  1  0  0  0  0
  4  5  1  0  0  0  0
  4  6  1  0  0  0  0
  4  7  1  0  0  0  0
  7  8  1  0  0  0  0
  7  9  1  0  0  0  0
  7 10  1  0  0  0  0
 10 11  1  0  0  0  0
 10 12  1  0  0  0  0
 10 13  1  0  0  0  0
M  END
> <VConfSearch Rank>
42

> <Conf_Id>
1

> <Delta U+W>
-1.339

> <U+W>
-59.672

> <U>
7.389

> <W>
-67.061

> <W(PB)>
-68.767

> <W(SA)>
1.707

> <Valence>
5.822

> <Coulomb>
1.255

> <VdW>
0.312

> <VdW6>
-3.061

> <VdW12>
3.372

> <Bond>
0.059

> <Angle>
2.241

> <Pdih>
3.522

> <Idih>
0.000

> <Tether>
0.000

$$$$
VeraChem MOL file


 13 12  0  0  0  0  0  0  0  0999 V2000     
   20.7913   17.7394   20.8752 C   0  0  0  0  0  0  0  0  0  0  0  0
   20.1272   17.5058   19.8849 O   0  5  0  0  0  0  0  0  0  0  0  0
   22.0040   17.8107   20.8666 O   0  0  0  0  0  0  0  0  0  0  0  0
   20.0632   17.9168   22.2053 C   0  0  0  0  0  0  0  0  0  0  0  0
   20.7873   17.7982   23.0207 H   0  0  0  0  0  0  0  0  0  0  0  0
   19.3450   17.0934   22.2973 H   0  0  0  0  0  0  0  0  0  0  0  0
   19.3181   19.2690   22.3455 C   0  0  0  0  0  0  0  0  0  0  0  0
   18.6255   19.3965   21.5016 H   0  0  0  0  0  0  0  0  0  0  0  0
   18.7049   19.2492   23.2568 H   0  0  0  0  0  0  0  0  0  0  0  0
   20.2831   20.4706   22.4135 C   0  0  0  0  0  0  0  0  0  0  0  0
   20.8828   20.5476   21.4969 H   0  0  0  0  0  0  0  0  0  0  0  0
   19.7253   21.4086   22.5323 H   0  0  0  0  0  0  0  0  0  0  0  0
   20.9705   20.3742   23.2642 H   0  0  0  0  0  0  0  0  0  0  0  0
  1  2  1  0  0  0  0
  1  3  2  0  0  0  0
  1  4  1  0  0  0  0
  4  5  1  0  0  0  0
  4  6  1  0  0  0  0
  4  7  1  0  0  0  0
  7  8  1  0  0  0  0
  7  9  1  0  0  0  0
  7 10  1  0  0  0  0
 10 11  1  0  0  0  0
 10 12  1  0  0  0  0
 10 13  1  0  0  0  0
M  END
> <VConfSearch Rank>
43

> <Conf_Id>
4

> <Delta U+W>
0.281

> <U+W>
-58.051

> <U>
9.781

> <W>
-67.832

> <W(PB)>
-69.535

> <W(SA)>
1.703

> <Valence>
6.123

> <Coulomb>
3.449

> <VdW>
0.209

> <VdW6>
-3.762

> <VdW12>
3.972

> <Bond>
0.078

> <Angle>
2.428

> <Pdih>
3.616

> <Idih>
0.002

> <Tether>
0.000

$$$$
VeraChem MOL file


 13 12  0  0  0  0  0  0  0  0999 V2000     
   18.5211   18.2402   22.3632 C   0  0  0  0  0  0  0  0  0  0  0  0
   18.5450   17.7430   23.4714 O   0  5  0  0  0  0  0  0  0  0  0  0
   17.5541   18.8195   21.9099 O   0  0  0  0  0  0  0  0  0  0  0  0
   19.7571   18.1001   21.4781 C   0  0  0  0  0  0  0  0  0  0  0  0
   19.4169   17.7593   20.4930 H   0  0  0  0  0  0  0  0  0  0  0  0
   20.3932   17.3049   21.8861 H   0  0  0  0  0  0  0  0  0  0  0  0
   20.5742   19.4077   21.3175 C   0  0  0  0  0  0  0  0  0  0  0  0
   21.3490   19.2564   20.5535 H   0  0  0  0  0  0  0  0  0  0  0  0
   19.9181   20.2082   20.9477 H   0  0  0  0  0  0  0  0  0  0  0  0
   21.2448   19.8504   22.6344 C   0  0  0  0  0  0  0  0  0  0  0  0
   21.9227   19.0729   23.0103 H   0  0  0  0  0  0  0  0  0  0  0  0
   21.8301   20.7664   22.4816 H   0  0  0  0  0  0  0  0  0  0  0  0
   20.4948   20.0539   23.4103 H   0  0  0  0  0  0  0  0  0  0  0  0
  1  2  1  0  0  0  0
  1  3  2  0  0  0  0
  1  4  1  0  0  0  0
  4  5  1  0  0  0  0
  4  6  1  0  0  0  0
  4  7  1  0  0  0  0
  7  8  1  0  0  0  0
  7  9  1  0  0  0  0
  7 10  1  0  0  0  0
 10 11  1  0  0  0  0
 10 12  1  0  0  0  0
 10 13  1  0  0  0  0
M  END
> <VConfSearch Rank>
44

> <Conf_Id>
36

> <Delta U+W>
0.272

> <U+W>
-58.060

> <U>
9.781

> <W>
-67.841

> <W(PB)>
-69.537

> <W(SA)>
1.696

> <Valence>
6.123

> <Coulomb>
3.449

> <VdW>
0.209

> <VdW6>
-3.762

> <VdW12>
3.972

> <Bond>
0.078

> <Angle>
2.428

> <Pdih>
3.616

> <Idih>
0.002

> <Tether>
0.000

$$$$
VeraChem MOL file


 13 12  0  0  0  0  0  0  0  0999 V2000     
   20.5976   17.7816   20.1684 C   0  0  0  0  0  0  0  0  0  0  0  0
   21.2484   16.9321   20.7447 O   0  5  0  0  0  0  0  0  0  0  0  0
   20.4249   17.7800   18.9663 O   0  0  0  0  0  0  0  0  0  0  0  0
   19.9543   18.9179   20.9656 C   0  0  0  0  0  0  0  0  0  0  0  0
   18.8766   18.8899   20.7648 H   0  0  0  0  0  0  0  0  0  0  0  0
   20.3321   19.8616   20.5544 H   0  0  0  0  0  0  0  0  0  0  0  0
   20.2017   18.8787   22.4963 C   0  0  0  0  0  0  0  0  0  0  0  0
   19.8249   17.9311   22.9059 H   0  0  0  0  0  0  0  0  0  0  0  0
   21.2822   18.9039   22.6952 H   0  0  0  0  0  0  0  0  0  0  0  0
   19.5173   20.0594   23.2142 C   0  0  0  0  0  0  0  0  0  0  0  0
   18.4310   20.0390   23.0562 H   0  0  0  0  0  0  0  0  0  0  0  0
   19.7034   20.0148   24.2953 H   0  0  0  0  0  0  0  0  0  0  0  0
   19.8999   21.0196   22.8438 H   0  0  0  0  0  0  0  0  0  0  0  0
  1  2  1  0  0  0  0
  1  3  2  0  0  0  0
  1  4  1  0  0  0  0
  4  5  1  0  0  0  0
  4  6  1  0  0  0  0
  4  7  1  0  0  0  0
  7  8  1  0  0  0  0
  7  9  1  0  0  0  0
  7 10  1  0  0  0  0
 10 11  1  0  0  0  0
 10 12  1  0  0  0  0
 10 13  1  0  0  0  0
M  END
> <VConfSearch Rank>
45

> <Conf_Id>
0

> <Delta U+W>
0.000

> <U+W>
-58.332

> <U>
8.390

> <W>
-66.722

> <W(PB)>
-68.455

> <W(SA)>
1.733

> <Valence>
6.333

> <Coulomb>
1.215

> <VdW>
0.842

> <VdW6>
-3.344

> <VdW12>
4.186

> <Bond>
0.091

> <Angle>
2.713

> <Pdih>
3.529

> <Idih>
0.000

> <Tether>
0.000

$$$$
VeraChem MOL file


 13 12  0  0  0  0  0  0  0  0999 V2000     
   19.1114   19.2041   19.9183 C   0  0  0  0  0  0  0  0  0  0  0  0
   17.8976   19.1766   19.8838 O   0  5  0  0  0  0  0  0  0  0  0  0
   19.8166   18.8944   18.9790 O   0  0  0  0  0  0  0  0  0  0  0  0
   19.7866   19.6323   21.2168 C   0  0  0  0  0  0  0  0  0  0  0  0
   19.1429   20.3718   21.7086 H   0  0  0  0  0  0  0  0  0  0  0  0
   20.7254   20.1392   20.9624 H   0  0  0  0  0  0  0  0  0  0  0  0
   20.0633   18.4472   22.1733 C   0  0  0  0  0  0  0  0  0  0  0  0
   19.1176   17.9413   22.4132 H   0  0  0  0  0  0  0  0  0  0  0  0
   20.7006   17.7087   21.6670 H   0  0  0  0  0  0  0  0  0  0  0  0
   20.7455   18.9129   23.4753 C   0  0  0  0  0  0  0  0  0  0  0  0
   20.9335   18.0595   24.1399 H   0  0  0  0  0  0  0  0  0  0  0  0
   21.7085   19.3958   23.2632 H   0  0  0  0  0  0  0  0  0  0  0  0
   20.1134   19.6302   24.0151 H   0  0  0  0  0  0  0  0  0  0  0  0
  1  2  1  0  0  0  0
  1  3  2  0  0  0  0
  1  4  1  0  0  0  0
  4  5  1  0  0  0  0
  4  6  1  0  0  0  0
  4  7  1  0  0  0  0
  7  8  1  0  0  0  0
  7  9  1  0  0  0  0
  7 10  1  0  0  0  0
 10 11  1  0  0  0  0
 10 12  1  0  0  0  0
 10 13  1  0  0  0  0
M  END
> <VConfSearch Rank>
46

> <Conf_Id>
1

> <Delta U+W>
-1.339

> <U+W>
-59.672

> <U>
7.389

> <W>
-67.061

> <W(PB)>
-68.767

> <W(SA)>
1.707

> <Valence>
5.822

> <Coulomb>
1.255

> <VdW>
0.312

> <VdW6>
-3.061

> <VdW12>
3.372

> <Bond>
0.059

> <Angle>
2.241

> <Pdih>
3.522

> <Idih>
0.000

> <Tether>
0.000

$$$$
VeraChem MOL file


 13 12  0  0  0  0  0  0  0  0999 V2000     
   18.9400   18.1131   23.0341 C   0  0  0  0  0  0  0  0  0  0  0  0
   19.3637   17.6907   24.0916 O   0  5  0  0  0  0  0  0  0  0  0  0
   17.8451   18.6240   22.9076 O   0  0  0  0  0  0  0  0  0  0  0  0
   19.8172   17.9600   21.7940 C   0  0  0  0  0  0  0  0  0  0  0  0
   19.1900   18.0836   20.9025 H   0  0  0  0  0  0  0  0  0  0  0  0
   20.1869   16.9278   21.7804 H   0  0  0  0  0  0  0  0  0  0  0  0
   21.0184   18.9386   21.7415 C   0  0  0  0  0  0  0  0  0  0  0  0
   21.6167   18.8359   22.6577 H   0  0  0  0  0  0  0  0  0  0  0  0
   21.6729   18.6604   20.9043 H   0  0  0  0  0  0  0  0  0  0  0  0
   20.5767   20.4067   21.5696 C   0  0  0  0  0  0  0  0  0  0  0  0
   19.9551   20.7333   22.4139 H   0  0  0  0  0  0  0  0  0  0  0  0
   21.4500   21.0697   21.5164 H   0  0  0  0  0  0  0  0  0  0  0  0
   19.9953   20.5362   20.6473 H   0  0  0  0  0  0  0  0  0  0  0  0
  1  2  1  0  0  0  0
  1  3  2  0  0  0  0
  1  4  1  0  0  0  0
  4  5  1  0  0  0  0
  4  6  1  0  0  0  0
  4  7  1  0  0  0  0
  7  8  1  0  0  0  0
  7  9  1  0  0  0  0
  7 10  1  0  0  0  0
 10 11  1  0  0  0  0
 10 12  1  0  0  0  0
 10 13  1  0  0  0  0
M  END
> <VConfSearch Rank>
47

> <Conf_Id>
4

> <Delta U+W>
0.281

> <U+W>
-58.051

> <U>
9.781

> <W>
-67.832

> <W(PB)>
-69.535

> <W(SA)>
1.703

> <Valence>
6.123

> <Coulomb>
3.449

> <VdW>
0.209

> <VdW6>
-3.762

> <VdW12>
3.972

> <Bond>
0.078

> <Angle>
2.428

> <Pdih>
3.616

> <Idih>
0.002

> <Tether>
0.000

$$$$
VeraChem MOL file


 13 12  0  0  0  0  0  0  0  0999 V2000     
   20.5988   17.2577   22.2287 C   0  0  0  0  0  0  0  0  0  0  0  0
   20.9153   17.0773   23.3876 O   0  5  0  0  0  0  0  0  0  0  0  0
   19.9956   16.4389   21.5640 O   0  0  0  0  0  0  0  0  0  0  0  0
   21.0109   18.5665   21.5592 C   0  0  0  0  0  0  0  0  0  0  0  0
   21.4629   18.3115   20.5932 H   0  0  0  0  0  0  0  0  0  0  0  0
   21.7969   19.0375   22.1622 H   0  0  0  0  0  0  0  0  0  0  0  0
   19.8422   19.5601   21.3352 C   0  0  0  0  0  0  0  0  0  0  0  0
   20.1956   20.3985   20.7196 H   0  0  0  0  0  0  0  0  0  0  0  0
   19.0428   19.0653   20.7659 H   0  0  0  0  0  0  0  0  0  0  0  0
   19.2741   20.1115   22.6593 C   0  0  0  0  0  0  0  0  0  0  0  0
   20.0524   20.6300   23.2345 H   0  0  0  0  0  0  0  0  0  0  0  0
   18.4632   20.8255   22.4648 H   0  0  0  0  0  0  0  0  0  0  0  0
   18.8703   19.3028   23.2827 H   0  0  0  0  0  0  0  0  0  0  0  0
  1  2  1  0  0  0  0
  1  3  2  0  0  0  0
  1  4  1  0  0  0  0
  4  5  1  0  0  0  0
  4  6  1  0  0  0  0
  4  7  1  0  0  0  0
  7  8  1  0  0  0  0
  7  9  1  0  0  0  0
  7 10  1  0  0  0  0
 10 11  1  0  0  0  0
 10 12  1  0  0  0  0
 10 13  1  0  0  0  0
M  END
> <VConfSearch Rank>
48

> <Conf_Id>
36

> <Delta U+W>
0.272

> <U+W>
-58.060

> <U>
9.781

> <W>
-67.841

> <W(PB)>
-69.537

> <W(SA)>
1.696

> <Valence>
6.123

> <Coulomb>
3.449

> <VdW>
0.209

> <VdW6>
-3.762

> <VdW12>
3.972

> <Bond>
0.078

> <Angle>
2.428

> <Pdih>
3.616

> <Idih>
0.002

> <Tether>
0.000

$$$$
VeraChem MOL file


 13 12  0  0  0  0  0  0  0  0999 V2000     
   18.0606   18.5326   22.5128 C   0  0  0  0  0  0  0  0  0  0  0  0
   17.9250   19.3865   23.3671 O   0  5  0  0  0  0  0  0  0  0  0  0
   17.2028   17.7124   22.2554 O   0  0  0  0  0  0  0  0  0  0  0  0
   19.3597   18.4614   21.7079 C   0  0  0  0  0  0  0  0  0  0  0  0
   19.0938   18.5509   20.6479 H   0  0  0  0  0  0  0  0  0  0  0  0
   19.7784   17.4579   21.8494 H   0  0  0  0  0  0  0  0  0  0  0  0
   20.4256   19.5282   22.0710 C   0  0  0  0  0  0  0  0  0  0  0  0
   20.0032   20.5331   21.9313 H   0  0  0  0  0  0  0  0  0  0  0  0
   20.6885   19.4388   23.1343 H   0  0  0  0  0  0  0  0  0  0  0  0
   21.6968   19.3788   21.2110 C   0  0  0  0  0  0  0  0  0  0  0  0
   21.4653   19.4954   20.1441 H   0  0  0  0  0  0  0  0  0  0  0  0
   22.4386   20.1414   21.4821 H   0  0  0  0  0  0  0  0  0  0  0  0
   22.1561   18.3923   21.3567 H   0  0  0  0  0  0  0  0  0  0  0  0
  1  2  1  0  0  0  0
  1  3  2  0  0  0  0
  1  4  1  0  0  0  0
  4  5  1  0  0  0  0
  4  6  1  0  0  0  0
  4  7  1  0  0  0  0
  7  8  1  0  0  0  0
  7  9  1  0  0  0  0
  7 10  1  0  0  0  0
 10 11  1  0  0  0  0
 10 12  1  0  0  0  0
 10 13  1  0  0  0  0
M  END
> <VConfSearch Rank>
49

> <Conf_Id>
0

> <Delta U+W>
0.000

> <U+W>
-58.332

> <U>
8.390

> <W>
-66.722

> <W(PB)>
-68.455

> <W(SA)>
1.733

> <Valence>
6.333

> <Coulomb>
1.215

> <VdW>
0.842

> <VdW6>
-3.344

> <VdW12>
4.186

> <Bond>
0.091

> <Angle>
2.713

> <Pdih>
3.529

> <Idih>
0.000

> <Tether>
0.000

$$$$
VeraChem MOL file


 13 12  0  0  0  0  0  0  0  0999 V2000     
   21.2647   17.5926   20.9716 C   0  0  0  0  0  0  0  0  0  0  0  0
   22.4565   17.8056   21.0697 O   0  5  0  0  0  0  0  0  0  0  0  0
   20.7762   16.9006   20.1011 O   0  0  0  0  0  0  0  0  0  0  0  0
   20.3296   18.2446   21.9845 C   0  0  0  0  0  0  0  0  0  0  0  0
   20.8616   18.3205   22.9407 H   0  0  0  0  0  0  0  0  0  0  0  0
   19.4759   17.5742   22.1419 H   0  0  0  0  0  0  0  0  0  0  0  0
   19.8346   19.6415   21.5380 C   0  0  0  0  0  0  0  0  0  0  0  0
   20.6982   20.3012   21.3739 H   0  0  0  0  0  0  0  0  0  0  0  0
   19.3122   19.5547   20.5751 H   0  0  0  0  0  0  0  0  0  0  0  0
   18.8925   20.2731   22.5824 C   0  0  0  0  0  0  0  0  0  0  0  0
   18.5524   21.2621   22.2485 H   0  0  0  0  0  0  0  0  0  0  0  0
   18.0057   19.6456   22.7418 H   0  0  0  0  0  0  0  0  0  0  0  0
   19.4024   20.3979   23.5468 H   0  0  0  0  0  0  0  0  0  0  0  0
  1  2  1  0  0  0  0
  1  3  2  0  0  0  0
  1  4  1  0  0  0  0
  4  5  1  0  0  0  0
  4  6  1  0  0  0  0
  4  7  1  0  0  0  0
  7  8  1  0  0  0  0
  7  9  1  0  0  0  0
  7 10  1  0  0  0  0
 10 11  1  0  0  0  0
 10 12  1  0  0  0  0
 10 13  1  0  0  0  0
M  END
> <VConfSearch Rank>
50

> <Conf_Id>
1

> <Delta U+W>
-1.339

> <U+W>
-59.672

> <U>
7.389

> <W>
-67.061

> <W(PB)>
-68.767

> <W(SA)>
1.707

> <Valence>
5.822

> <Coulomb>
1.255

> <VdW>
0.312

> <VdW6>
-3.061

> <VdW12>
3.372

> <Bond>
0.059

> <Angle>
2.241

> <Pdih>
3.522

> <Idih>
0.000

> <Tether>
0.000

$$$$
VeraChem MOL file


 13 12  0  0  0  0  0  0  0  0999 V2000     
   20.2784   19.6557   20.3496 C   0  0  0  0  0  0  0  0  0  0  0  0
   20.3335   18.8528   19.4394 O   0  5  0  0  0  0  0  0  0  0  0  0
   19.6605   20.6997   20.2851 O   0  0  0  0  0  0  0  0  0  0  0  0
   21.0569   19.3508   21.6270 C   0  0  0  0  0  0  0  0  0  0  0  0
   21.1703   20.2796   22.1995 H   0  0  0  0  0  0  0  0  0  0  0  0
   22.0646   19.0375   21.3290 H   0  0  0  0  0  0  0  0  0  0  0  0
   20.4164   18.2520   22.5135 C   0  0  0  0  0  0  0  0  0  0  0  0
   20.2693   17.3394   21.9190 H   0  0  0  0  0  0  0  0  0  0  0  0
   21.1117   17.9924   23.3234 H   0  0  0  0  0  0  0  0  0  0  0  0
   19.0724   18.6969   23.1264 C   0  0  0  0  0  0  0  0  0  0  0  0
   18.3368   18.9225   22.3429 H   0  0  0  0  0  0  0  0  0  0  0  0
   18.6565   17.9050   23.7627 H   0  0  0  0  0  0  0  0  0  0  0  0
   19.2009   19.5959   23.7433 H   0  0  0  0  0  0  0  0  0  0  0  0
  1  2  1  0  0  0  0
  1  3  2  0  0  0  0
  1  4  1  0  0  0  0
  4  5  1  0  0  0  0
  4  6  1  0  0  0  0
  4  7  1  0  0  0  0
  7  8  1  0  0  0  0
  7  9  1  0  0  0  0
  7 10  1  0  0  0  0
 10 11  1  0  0  0  0
 10 12  1  0  0  0  0
 10 13  1  0  0  0  0
M  END
> <VConfSearch Rank>
51

> <Conf_Id>
4

> <Delta U+W>
0.281

> <U+W>
-58.051

> <U>
9.781

> <W>
-67.832

> <W(PB)>
-69.535

> <W(SA)>
1.703

> <Valence>
6.123

> <Coulomb>
3.449

> <VdW>
0.209

> <VdW6>
-3.762

> <VdW12>
3.972

> <Bond>
0.078

> <Angle>
2.428

> <Pdih>
3.616

> <Idih>
0.002

> <Tether>
0.000

$$$$
VeraChem MOL file


 13 12  0  0  0  0  0  0  0  0999 V2000     
   19.3792   20.1572   20.8777 C   0  0  0  0  0  0  0  0  0  0  0  0
   20.2012   21.0007   20.5800 O   0  5  0  0  0  0  0  0  0  0  0  0
   18.5584   19.7173   20.0975 O   0  0  0  0  0  0  0  0  0  0  0  0
   19.3507   19.6477   22.3166 C   0  0  0  0  0  0  0  0  0  0  0  0
   18.3080   19.6800   22.6544 H   0  0  0  0  0  0  0  0  0  0  0  0
   19.9102   20.3482   22.9486 H   0  0  0  0  0  0  0  0  0  0  0  0
   19.9052   18.2106   22.4920 C   0  0  0  0  0  0  0  0  0  0  0  0
   19.7087   17.8718   23.5184 H   0  0  0  0  0  0  0  0  0  0  0  0
   19.3657   17.5243   21.8243 H   0  0  0  0  0  0  0  0  0  0  0  0
   21.4202   18.1244   22.2143 C   0  0  0  0  0  0  0  0  0  0  0  0
   21.9808   18.7868   22.8868 H   0  0  0  0  0  0  0  0  0  0  0  0
   21.7836   17.0997   22.3663 H   0  0  0  0  0  0  0  0  0  0  0  0
   21.6490   18.4144   21.1802 H   0  0  0  0  0  0  0  0  0  0  0  0
  1  2  1  0  0  0  0
  1  3  2  0  0  0  0
  1  4  1  0  0  0  0
  4  5  1  0  0  0  0
  4  6  1  0  0  0  0
  4  7  1  0  0  0  0
  7  8  1  0  0  0  0
  7  9  1  0  0  0  0
  7 10  1  0  0  0  0
 10 11  1  0  0  0  0
 10 12  1  0  0  0  0
 10 13  1  0  0  0  0
M  END
> <VConfSearch Rank>
52

> <Conf_Id>
36

> <Delta U+W>
0.272

> <U+W>
-58.060

> <U>
9.781

> <W>
-67.841

> <W(PB)>
-69.537

> <W(SA)>
1.696

> <Valence>
6.123

> <Coulomb>
3.449

> <VdW>
0.209

> <VdW6>
-3.762

> <VdW12>
3.972

> <Bond>
0.078

> <Angle>
2.428

> <Pdih>
3.616

> <Idih>
0.002

> <Tether>
0.000

$$$$
VeraChem MOL file


 13 12  0  0  0  0  0  0  0  0999 V2000     
   19.6512   20.8944   20.9132 C   0  0  0  0  0  0  0  0  0  0  0  0
   20.7731   21.1776   20.5410 O   0  5  0  0  0  0  0  0  0  0  0  0
   18.6920   21.6167   20.7315 O   0  0  0  0  0  0  0  0  0  0  0  0
   19.4037   19.5751   21.6473 C   0  0  0  0  0  0  0  0  0  0  0  0
   18.6481   19.0203   21.0785 H   0  0  0  0  0  0  0  0  0  0  0  0
   18.9578   19.8193   22.6189 H   0  0  0  0  0  0  0  0  0  0  0  0
   20.6572   18.6858   21.8566 C   0  0  0  0  0  0  0  0  0  0  0  0
   21.1042   18.4446   20.8820 H   0  0  0  0  0  0  0  0  0  0  0  0
   21.4144   19.2446   22.4241 H   0  0  0  0  0  0  0  0  0  0  0  0
   20.3119   17.3813   22.6028 C   0  0  0  0  0  0  0  0  0  0  0  0
   19.5788   16.7888   22.0397 H   0  0  0  0  0  0  0  0  0  0  0  0
   21.2104   16.7658   22.7414 H   0  0  0  0  0  0  0  0  0  0  0  0
   19.8914   17.5953   23.5942 H   0  0  0  0  0  0  0  0  0  0  0  0
  1  2  1  0  0  0  0
  1  3  2  0  0  0  0
  1  4  1  0  0  0  0
  4  5  1  0  0  0  0
  4  6  1  0  0  0  0
  4  7  1  0  0  0  0
  7  8  1  0  0  0  0
  7  9  1  0  0  0  0
  7 10  1  0  0  0  0
 10 11  1  0  0  0  0
 10 12  1  0  0  0  0
 10 13  1  0  0  0  0
M  END
> <VConfSearch Rank>
53

> <Conf_Id>
0

> <Delta U+W>
0.000

> <U+W>
-58.332

> <U>
8.390

> <W>
-66.722

> <W(PB)>
-68.455

> <W(SA)>
1.733

> <Valence>
6.333

> <Coulomb>
1.215

> <VdW>
0.842

> <VdW6>
-3.344

> <VdW12>
4.186

> <Bond>
0.091

> <Angle>
2.713

> <Pdih>
3.529

> <Idih>
0.000

> <Tether>
0.000

$$$$
VeraChem MOL file


 13 12  0  0  0  0  0  0  0  0999 V2000     
   20.4062   17.5954   20.3484 C   0  0  0  0  0  0  0  0  0  0  0  0
   19.5504   17.4385   19.5009 O   0  5  0  0  0  0  0  0  0  0  0  0
   21.2202   16.7443   20.6457 O   0  0  0  0  0  0  0  0  0  0  0  0
   20.4491   18.9258   21.0926 C   0  0  0  0  0  0  0  0  0  0  0  0
   20.1168   19.7127   20.4046 H   0  0  0  0  0  0  0  0  0  0  0  0
   21.4938   19.1402   21.3486 H   0  0  0  0  0  0  0  0  0  0  0  0
   19.5755   18.9317   22.3704 C   0  0  0  0  0  0  0  0  0  0  0  0
   18.5337   18.7061   22.1031 H   0  0  0  0  0  0  0  0  0  0  0  0
   19.9110   18.1336   23.0474 H   0  0  0  0  0  0  0  0  0  0  0  0
   19.6403   20.2891   23.0988 C   0  0  0  0  0  0  0  0  0  0  0  0
   19.0153   20.2738   24.0013 H   0  0  0  0  0  0  0  0  0  0  0  0
   20.6691   20.5230   23.4029 H   0  0  0  0  0  0  0  0  0  0  0  0
   19.2811   21.0998   22.4514 H   0  0  0  0  0  0  0  0  0  0  0  0
  1  2  1  0  0  0  0
  1  3  2  0  0  0  0
  1  4  1  0  0  0  0
  4  5  1  0  0  0  0
  4  6  1  0  0  0  0
  4  7  1  0  0  0  0
  7  8  1  0  0  0  0
  7  9  1  0  0  0  0
  7 10  1  0  0  0  0
 10 11  1  0  0  0  0
 10 12  1  0  0  0  0
 10 13  1  0  0  0  0
M  END
> <VConfSearch Rank>
54

> <Conf_Id>
1

> <Delta U+W>
-1.339

> <U+W>
-59.672

> <U>
7.389

> <W>
-67.061

> <W(PB)>
-68.767

> <W(SA)>
1.707

> <Valence>
5.822

> <Coulomb>
1.255

> <VdW>
0.312

> <VdW6>
-3.061

> <VdW12>
3.372

> <Bond>
0.059

> <Angle>
2.241

> <Pdih>
3.522

> <Idih>
0.000

> <Tether>
0.000

$$$$
VeraChem MOL file


 13 12  0  0  0  0  0  0  0  0999 V2000     
   18.5174   19.4940   22.5875 C   0  0  0  0  0  0  0  0  0  0  0  0
   18.2871   19.2877   23.7624 O   0  5  0  0  0  0  0  0  0  0  0  0
   18.1821   20.5073   22.0072 O   0  0  0  0  0  0  0  0  0  0  0  0
   19.2343   18.4057   21.7922 C   0  0  0  0  0  0  0  0  0  0  0  0
   19.0814   18.5938   20.7223 H   0  0  0  0  0  0  0  0  0  0  0  0
   18.7393   17.4542   22.0202 H   0  0  0  0  0  0  0  0  0  0  0  0
   20.7486   18.2864   22.1022 C   0  0  0  0  0  0  0  0  0  0  0  0
   20.8924   18.1395   23.1818 H   0  0  0  0  0  0  0  0  0  0  0  0
   21.1481   17.3914   21.6059 H   0  0  0  0  0  0  0  0  0  0  0  0
   21.5462   19.5209   21.6335 C   0  0  0  0  0  0  0  0  0  0  0  0
   21.2021   20.4302   22.1439 H   0  0  0  0  0  0  0  0  0  0  0  0
   22.6152   19.3958   21.8498 H   0  0  0  0  0  0  0  0  0  0  0  0
   21.4340   19.6732   20.5520 H   0  0  0  0  0  0  0  0  0  0  0  0
  1  2  1  0  0  0  0
  1  3  2  0  0  0  0
  1  4  1  0  0  0  0
  4  5  1  0  0  0  0
  4  6  1  0  0  0  0
  4  7  1  0  0  0  0
  7  8  1  0  0  0  0
  7  9  1  0  0  0  0
  7 10  1  0  0  0  0
 10 11  1  0  0  0  0
 10 12  1  0  0  0  0
 10 13  1  0  0  0  0
M  END
> <VConfSearch Rank>
55

> <Conf_Id>
4

> <Delta U+W>
0.281

> <U+W>
-58.051

> <U>
9.781

> <W>
-67.832

> <W(PB)>
-69.535

> <W(SA)>
1.703

> <Valence>
6.123

> <Coulomb>
3.449

> <VdW>
0.209

> <VdW6>
-3.762

> <VdW12>
3.972

> <Bond>
0.078

> <Angle>
2.428

> <Pdih>
3.616

> <Idih>
0.002

> <Tether>
0.000

$$$$
VeraChem MOL file


 13 12  0  0  0  0  0  0  0  0999 V2000     
   18.6066   19.3306   21.1034 C   0  0  0  0  0  0  0  0  0  0  0  0
   18.3554   18.4188   20.3409 O   0  5  0  0  0  0  0  0  0  0  0  0
   17.7564   19.9418   21.7195 O   0  0  0  0  0  0  0  0  0  0  0  0
   20.0632   19.7563   21.2707 C   0  0  0  0  0  0  0  0  0  0  0  0
   20.0979   20.8480   21.1739 H   0  0  0  0  0  0  0  0  0  0  0  0
   20.6472   19.3458   20.4378 H   0  0  0  0  0  0  0  0  0  0  0  0
   20.6952   19.3382   22.6231 C   0  0  0  0  0  0  0  0  0  0  0  0
   21.6823   19.8106   22.7204 H   0  0  0  0  0  0  0  0  0  0  0  0
   20.0798   19.7194   23.4500 H   0  0  0  0  0  0  0  0  0  0  0  0
   20.8534   17.8091   22.7531 C   0  0  0  0  0  0  0  0  0  0  0  0
   21.4842   17.4100   21.9480 H   0  0  0  0  0  0  0  0  0  0  0  0
   21.3209   17.5487   23.7116 H   0  0  0  0  0  0  0  0  0  0  0  0
   19.8786   17.3060   22.7046 H   0  0  0  0  0  0  0  0  0  0  0  0
  1  2  1  0  0  0  0
  1  3  2  0  0  0  0
  1  4  1  0  0  0  0
  4  5  1  0  0  0  0
  4  6  1  0  0  0  0
  4  7  1  0  0  0  0
  7  8  1  0  0  0  0
  7  9  1  0  0  0  0
  7 10  1  0  0  0  0
 10 11  1  0  0  0  0
 10 12  1  0  0  0  0
 10 13  1  0  0  0  0
M  END
> <VConfSearch Rank>
56

> <Conf_Id>
36

> <Delta U+W>
0.272

> <U+W>
-58.060

> <U>
9.781

> <W>
-67.841

> <W(PB)>
-69.537

> <W(SA)>
1.696

> <Valence>
6.123

> <Coulomb>
3.449

> <VdW>
0.209

> <VdW6>
-3.762

> <VdW12>
3.972

> <Bond>
0.078

> <Angle>
2.428

> <Pdih>
3.616

> <Idih>
0.002

> <Tether>
0.000

$$$$
VeraChem MOL file


 13 12  0  0  0  0  0  0  0  0999 V2000     
   21.4545   19.8421   23.1586 C   0  0  0  0  0  0  0  0  0  0  0  0
   22.2718   18.9431   23.1912 O   0  5  0  0  0  0  0  0  0  0  0  0
   21.5816   20.8746   23.7852 O   0  0  0  0  0  0  0  0  0  0  0  0
   20.1975   19.6966   22.2987 C   0  0  0  0  0  0  0  0  0  0  0  0
   20.1814   20.5387   21.5966 H   0  0  0  0  0  0  0  0  0  0  0  0
   19.3317   19.8152   22.9610 H   0  0  0  0  0  0  0  0  0  0  0  0
   20.0781   18.3623   21.5168 C   0  0  0  0  0  0  0  0  0  0  0  0
   20.9481   18.2439   20.8558 H   0  0  0  0  0  0  0  0  0  0  0  0
   20.0975   17.5195   22.2219 H   0  0  0  0  0  0  0  0  0  0  0  0
   18.7836   18.3059   20.6808 C   0  0  0  0  0  0  0  0  0  0  0  0
   18.7546   19.1212   19.9460 H   0  0  0  0  0  0  0  0  0  0  0  0
   18.7169   17.3555   20.1354 H   0  0  0  0  0  0  0  0  0  0  0  0
   17.8971   18.3910   21.3231 H   0  0  0  0  0  0  0  0  0  0  0  0
  1  2  1  0  0  0  0
  1  3  2  0  0  0  0
  1  4  1  0  0  0  0
  4  5  1  0  0  0  0
  4  6  1  0  0  0  0
  4  7  1  0  0  0  0
  7  8  1  0  0  0  0
  7  9  1  0  0  0  0
  7 10  1  0  0  0  0
 10 11  1  0  0  0  0
 10 12  1  0  0  0  0
 10 13  1  0  0  0  0
M  END
> <VConfSearch Rank>
57

> <Conf_Id>
0

> <Delta U+W>
0.000

> <U+W>
-58.332

> <U>
8.390

> <W>
-66.722

> <W(PB)>
-68.455

> <W(SA)>
1.733

> <Valence>
6.333

> <Coulomb>
1.215

> <VdW>
0.842

> <VdW6>
-3.344

> <VdW12>
4.186

> <Bond>
0.091

> <Angle>
2.713

> <Pdih>
3.529

> <Idih>
0.000

> <Tether>
0.000

$$$$
VeraChem MOL file


 13 12  0  0  0  0  0  0  0  0999 V2000     
   21.2734   17.3632   21.7932 C   0  0  0  0  0  0  0  0  0  0  0  0
   20.7451   16.2823   21.9604 O   0  5  0  0  0  0  0  0  0  0  0  0
   22.4442   17.5819   22.0314 O   0  0  0  0  0  0  0  0  0  0  0  0
   20.4159   18.5125   21.2741 C   0  0  0  0  0  0  0  0  0  0  0  0
   19.6519   18.0943   20.6074 H   0  0  0  0  0  0  0  0  0  0  0  0
   21.0531   19.1661   20.6659 H   0  0  0  0  0  0  0  0  0  0  0  0
   19.7461   19.3263   22.4076 C   0  0  0  0  0  0  0  0  0  0  0  0
   19.1186   18.6598   23.0158 H   0  0  0  0  0  0  0  0  0  0  0  0
   20.5200   19.7319   23.0742 H   0  0  0  0  0  0  0  0  0  0  0  0
   18.8873   20.4793   21.8506 C   0  0  0  0  0  0  0  0  0  0  0  0
   18.4211   21.0443   22.6684 H   0  0  0  0  0  0  0  0  0  0  0  0
   19.4991   21.1763   21.2628 H   0  0  0  0  0  0  0  0  0  0  0  0
   18.0869   20.0961   21.2040 H   0  0  0  0  0  0  0  0  0  0  0  0
  1  2  1  0  0  0  0
  1  3  2  0  0  0  0
  1  4  1  0  0  0  0
  4  5  1  0  0  0  0
  4  6  1  0  0  0  0
  4  7  1  0  0  0  0
  7  8  1  0  0  0  0
  7  9  1  0  0  0  0
  7 10  1  0  0  0  0
 10 11  1  0  0  0  0
 10 12  1  0  0  0  0
 10 13  1  0  0  0  0
M  END
> <VConfSearch Rank>
58

> <Conf_Id>
1

> <Delta U+W>
-1.339

> <U+W>
-59.672

> <U>
7.389

> <W>
-67.061

> <W(PB)>
-68.767

> <W(SA)>
1.707

> <Valence>
5.822

> <Coulomb>
1.255

> <VdW>
0.312

> <VdW6>
-3.061

> <VdW12>
3.372

> <Bond>
0.059

> <Angle>
2.241

> <Pdih>
3.522

> <Idih>
0.000

> <Tether>
0.000

$$$$
VeraChem MOL file


 13 12  0  0  0  0  0  0  0  0999 V2000     
   21.5002   19.9989   21.4902 C   0  0  0  0  0  0  0  0  0  0  0  0
   21.6597   20.1243   20.2923 O   0  5  0  0  0  0  0  0  0  0  0  0
   21.6412   20.9084   22.2833 O   0  0  0  0  0  0  0  0  0  0  0  0
   21.1388   18.6165   22.0280 C   0  0  0  0  0  0  0  0  0  0  0  0
   21.3443   18.5938   23.1053 H   0  0  0  0  0  0  0  0  0  0  0  0
   21.8199   17.8955   21.5605 H   0  0  0  0  0  0  0  0  0  0  0  0
   19.6728   18.1928   21.7550 C   0  0  0  0  0  0  0  0  0  0  0  0
   19.4654   18.2588   20.6778 H   0  0  0  0  0  0  0  0  0  0  0  0
   19.5443   17.1388   22.0372 H   0  0  0  0  0  0  0  0  0  0  0  0
   18.6552   19.0508   22.5350 C   0  0  0  0  0  0  0  0  0  0  0  0
   18.7253   20.1075   22.2446 H   0  0  0  0  0  0  0  0  0  0  0  0
   17.6302   18.7125   22.3350 H   0  0  0  0  0  0  0  0  0  0  0  0
   18.8308   18.9815   23.6166 H   0  0  0  0  0  0  0  0  0  0  0  0
  1  2  1  0  0  0  0
  1  3  2  0  0  0  0
  1  4  1  0  0  0  0
  4  5  1  0  0  0  0
  4  6  1  0  0  0  0
  4  7  1  0  0  0  0
  7  8  1  0  0  0  0
  7  9  1  0  0  0  0
  7 10  1  0  0  0  0
 10 11  1  0  0  0  0
 10 12  1  0  0  0  0
 10 13  1  0  0  0  0
M  END
> <VConfSearch Rank>
59

> <Conf_Id>
4

> <Delta U+W>
0.281

> <U+W>
-58.051

> <U>
9.781

> <W>
-67.832

> <W(PB)>
-69.535

> <W(SA)>
1.703

> <Valence>
6.123

> <Coulomb>
3.449

> <VdW>
0.209

> <VdW6>
-3.762

> <VdW12>
3.972

> <Bond>
0.078

> <Angle>
2.428

> <Pdih>
3.616

> <Idih>
0.002

> <Tether>
0.000

$$$$
VeraChem MOL file


 13 12  0  0  0  0  0  0  0  0999 V2000     
   20.7719   20.5640   22.4808 C   0  0  0  0  0  0  0  0  0  0  0  0
   21.9323   20.6510   22.1319 O   0  5  0  0  0  0  0  0  0  0  0  0
   19.9907   21.4938   22.4458 O   0  0  0  0  0  0  0  0  0  0  0  0
   20.2763   19.2269   23.0259 C   0  0  0  0  0  0  0  0  0  0  0  0
   19.7398   19.4330   23.9597 H   0  0  0  0  0  0  0  0  0  0  0  0
   21.1450   18.6109   23.2889 H   0  0  0  0  0  0  0  0  0  0  0  0
   19.3462   18.4522   22.0572 C   0  0  0  0  0  0  0  0  0  0  0  0
   18.9202   17.5865   22.5825 H   0  0  0  0  0  0  0  0  0  0  0  0
   18.5014   19.0928   21.7676 H   0  0  0  0  0  0  0  0  0  0  0  0
   20.0851   17.9620   20.7948 C   0  0  0  0  0  0  0  0  0  0  0  0
   20.9207   17.3015   21.0609 H   0  0  0  0  0  0  0  0  0  0  0  0
   19.4041   17.4017   20.1411 H   0  0  0  0  0  0  0  0  0  0  0  0
   20.4872   18.8068   20.2198 H   0  0  0  0  0  0  0  0  0  0  0  0
  1  2  1  0  0  0  0
  1  3  2  0  0  0  0
  1  4  1  0  0  0  0
  4  5  1  0  0  0  0
  4  6  1  0  0  0  0
  4  7  1  0  0  0  0
  7  8  1  0  0  0  0
  7  9  1  0  0  0  0
  7 10  1  0  0  0  0
 10 11  1  0  0  0  0
 10 12  1  0  0  0  0
 10 13  1  0  0  0  0
M  END
> <VConfSearch Rank>
60

> <Conf_Id>
36

> <Delta U+W>
0.272

> <U+W>
-58.060

> <U>
9.781

> <W>
-67.841

> <W(PB)>
-69.537

> <W(SA)>
1.696

> <Valence>
6.123

> <Coulomb>
3.449

> <VdW>
0.209

> <VdW6>
-3.762

> <VdW12>
3.972

> <Bond>
0.078

> <Angle>
2.428

> <Pdih>
3.616

> <Idih>
0.002

> <Tether>
0.000

$$$$
VeraChem MOL file


 13 12  0  0  0  0  0  0  0  0999 V2000     
   19.8367   21.0723   21.3499 C   0  0  0  0  0  0  0  0  0  0  0  0
   19.5190   21.5119   22.4376 O   0  5  0  0  0  0  0  0  0  0  0  0
   19.9669   21.7722   20.3661 O   0  0  0  0  0  0  0  0  0  0  0  0
   20.0908   19.5732   21.1800 C   0  0  0  0  0  0  0  0  0  0  0  0
   21.1113   19.4552   20.7966 H   0  0  0  0  0  0  0  0  0  0  0  0
   19.4115   19.2121   20.3987 H   0  0  0  0  0  0  0  0  0  0  0  0
   19.9127   18.7195   22.4627 C   0  0  0  0  0  0  0  0  0  0  0  0
   20.5922   19.0848   23.2453 H   0  0  0  0  0  0  0  0  0  0  0  0
   18.8903   18.8415   22.8470 H   0  0  0  0  0  0  0  0  0  0  0  0
   20.1886   17.2260   22.1957 C   0  0  0  0  0  0  0  0  0  0  0  0
   21.2160   17.0738   21.8396 H   0  0  0  0  0  0  0  0  0  0  0  0
   20.0577   16.6386   23.1139 H   0  0  0  0  0  0  0  0  0  0  0  0
   19.5005   16.8286   21.4380 H   0  0  0  0  0  0  0  0  0  0  0  0
  1  2  1  0  0  0  0
  1  3  2  0  0  0  0
  1  4  1  0  0  0  0
  4  5  1  0  0  0  0
  4  6  1  0  0  0  0
  4  7  1  0  0  0  0
  7  8  1  0  0  0  0
  7  9  1  0  0  0  0
  7 10  1  0  0  0  0
 10 11  1  0  0  0  0
 10 12  1  0  0  0  0
 10 13  1  0  0  0  0
M  END
> <VConfSearch Rank>
61

> <Conf_Id>
0

> <Delta U+W>
0.000

> <U+W>
-58.332

> <U>
8.390

> <W>
-66.722

> <W(PB)>
-68.455

> <W(SA)>
1.733

> <Valence>
6.333

> <Coulomb>
1.215

> <VdW>
0.842

> <VdW6>
-3.344

> <VdW12>
4.186

> <Bond>
0.091

> <Angle>
2.713

> <Pdih>
3.529

> <Idih>
0.000

> <Tether>
0.000

$$$$
VeraChem MOL file


 13 12  0  0  0  0  0  0  0  0999 V2000     
   20.4922   19.9938   20.0163 C   0  0  0  0  0  0  0  0  0  0  0  0
   21.6327   19.8370   19.6288 O   0  5  0  0  0  0  0  0  0  0  0  0
   19.8014   20.9423   19.7026 O   0  0  0  0  0  0  0  0  0  0  0  0
   19.9024   18.9535   20.9625 C   0  0  0  0  0  0  0  0  0  0  0  0
   20.3347   17.9777   20.7094 H   0  0  0  0  0  0  0  0  0  0  0  0
   18.8245   18.8892   20.7702 H   0  0  0  0  0  0  0  0  0  0  0  0
   20.1589   19.2789   22.4539 C   0  0  0  0  0  0  0  0  0  0  0  0
   21.2410   19.3506   22.6325 H   0  0  0  0  0  0  0  0  0  0  0  0
   19.7304   20.2622   22.6934 H   0  0  0  0  0  0  0  0  0  0  0  0
   19.5510   18.2095   23.3834 C   0  0  0  0  0  0  0  0  0  0  0  0
   19.7430   18.4574   24.4356 H   0  0  0  0  0  0  0  0  0  0  0  0
   18.4641   18.1402   23.2444 H   0  0  0  0  0  0  0  0  0  0  0  0
   19.9863   17.2216   23.1831 H   0  0  0  0  0  0  0  0  0  0  0  0
  1  2  1  0  0  0  0
  1  3  2  0  0  0  0
  1  4  1  0  0  0  0
  4  5  1  0  0  0  0
  4  6  1  0  0  0  0
  4  7  1  0  0  0  0
  7  8  1  0  0  0  0
  7  9  1  0  0  0  0
  7 10  1  0  0  0  0
 10 11  1  0  0  0  0
 10 12  1  0  0  0  0
 10 13  1  0  0  0  0
M  END
> <VConfSearch Rank>
62

> <Conf_Id>
1

> <Delta U+W>
-1.339

> <U+W>
-59.672

> <U>
7.389

> <W>
-67.061

> <W(PB)>
-68.767

> <W(SA)>
1.707

> <Valence>
5.822

> <Coulomb>
1.255

> <VdW>
0.312

> <VdW6>
-3.061

> <VdW12>
3.372

> <Bond>
0.059

> <Angle>
2.241

> <Pdih>
3.522

> <Idih>
0.000

> <Tether>
0.000

$$$$
VeraChem MOL file


 13 12  0  0  0  0  0  0  0  0999 V2000     
   21.3050   18.7543   23.3287 C   0  0  0  0  0  0  0  0  0  0  0  0
   20.8348   18.6069   24.4392 O   0  5  0  0  0  0  0  0  0  0  0  0
   22.2701   18.1379   22.9229 O   0  0  0  0  0  0  0  0  0  0  0  0
   20.6699   19.7950   22.4099 C   0  0  0  0  0  0  0  0  0  0  0  0
   21.3773   20.0324   21.6058 H   0  0  0  0  0  0  0  0  0  0  0  0
   20.5379   20.7120   22.9965 H   0  0  0  0  0  0  0  0  0  0  0  0
   19.3059   19.3652   21.8114 C   0  0  0  0  0  0  0  0  0  0  0  0
   18.6183   19.0901   22.6234 H   0  0  0  0  0  0  0  0  0  0  0  0
   18.8547   20.2218   21.2923 H   0  0  0  0  0  0  0  0  0  0  0  0
   19.4398   18.1896   20.8214 C   0  0  0  0  0  0  0  0  0  0  0  0
   19.8477   17.2995   21.3185 H   0  0  0  0  0  0  0  0  0  0  0  0
   18.4608   17.9237   20.4019 H   0  0  0  0  0  0  0  0  0  0  0  0
   20.1062   18.4515   19.9890 H   0  0  0  0  0  0  0  0  0  0  0  0
  1  2  1  0  0  0  0
  1  3  2  0  0  0  0
  1  4  1  0  0  0  0
  4  5  1  0  0  0  0
  4  6  1  0  0  0  0
  4  7  1  0  0  0  0
  7  8  1  0  0  0  0
  7  9  1  0  0  0  0
  7 10  1  0  0  0  0
 10 11  1  0  0  0  0
 10 12  1  0  0  0  0
 10 13  1  0  0  0  0
M  END
> <VConfSearch Rank>
63

> <Conf_Id>
4

> <Delta U+W>
0.281

> <U+W>
-58.051

> <U>
9.781

> <W>
-67.832

> <W(PB)>
-69.535

> <W(SA)>
1.703

> <Valence>
6.123

> <Coulomb>
3.449

> <VdW>
0.209

> <VdW6>
-3.762

> <VdW12>
3.972

> <Bond>
0.078

> <Angle>
2.428

> <Pdih>
3.616

> <Idih>
0.002

> <Tether>
0.000

$$$$
VeraChem MOL file


 13 12  0  0  0  0  0  0  0  0999 V2000     
   19.7455   19.4421   20.3091 C   0  0  0  0  0  0  0  0  0  0  0  0
   20.6623   19.1141   19.5826 O   0  5  0  0  0  0  0  0  0  0  0  0
   18.5770   19.3793   19.9825 O   0  0  0  0  0  0  0  0  0  0  0  0
   20.0781   19.9962   21.6922 C   0  0  0  0  0  0  0  0  0  0  0  0
   19.4971   20.9168   21.8241 H   0  0  0  0  0  0  0  0  0  0  0  0
   21.1364   20.2843   21.7102 H   0  0  0  0  0  0  0  0  0  0  0  0
   19.7704   19.0210   22.8574 C   0  0  0  0  0  0  0  0  0  0  0  0
   19.8949   19.5502   23.8120 H   0  0  0  0  0  0  0  0  0  0  0  0
   18.7186   18.7064   22.8056 H   0  0  0  0  0  0  0  0  0  0  0  0
   20.6866   17.7798   22.8460 C   0  0  0  0  0  0  0  0  0  0  0  0
   21.7426   18.0709   22.9195 H   0  0  0  0  0  0  0  0  0  0  0  0
   20.4561   17.1211   23.6934 H   0  0  0  0  0  0  0  0  0  0  0  0
   20.5553   17.2009   21.9222 H   0  0  0  0  0  0  0  0  0  0  0  0
  1  2  1  0  0  0  0
  1  3  2  0  0  0  0
  1  4  1  0  0  0  0
  4  5  1  0  0  0  0
  4  6  1  0  0  0  0
  4  7  1  0  0  0  0
  7  8  1  0  0  0  0
  7  9  1  0  0  0  0
  7 10  1  0  0  0  0
 10 11  1  0  0  0  0
 10 12  1  0  0  0  0
 10 13  1  0  0  0  0
M  END
> <VConfSearch Rank>
64

> <Conf_Id>
36

> <Delta U+W>
0.272

> <U+W>
-58.060

> <U>
9.781

> <W>
-67.841

> <W(PB)>
-69.537

> <W(SA)>
1.696

> <Valence>
6.123

> <Coulomb>
3.449

> <VdW>
0.209

> <VdW6>
-3.762

> <VdW12>
3.972

> <Bond>
0.078

> <Angle>
2.428

> <Pdih>
3.616

> <Idih>
0.002

> <Tether>
0.000

$$$$
VeraChem MOL file


 13 12  0  0  0  0  0  0  0  0999 V2000     
   20.0123   20.8538   22.8762 C   0  0  0  0  0  0  0  0  0  0  0  0
   20.1541   21.6286   21.9506 O   0  5  0  0  0  0  0  0  0  0  0  0
   19.9090   21.2148   24.0311 O   0  0  0  0  0  0  0  0  0  0  0  0
   19.9579   19.3487   22.6068 C   0  0  0  0  0  0  0  0  0  0  0  0
   19.0070   18.9781   23.0078 H   0  0  0  0  0  0  0  0  0  0  0  0
   20.7571   18.8815   23.1946 H   0  0  0  0  0  0  0  0  0  0  0  0
   20.0940   18.9348   21.1182 C   0  0  0  0  0  0  0  0  0  0  0  0
   19.2939   19.4064   20.5305 H   0  0  0  0  0  0  0  0  0  0  0  0
   21.0461   19.3097   20.7174 H   0  0  0  0  0  0  0  0  0  0  0  0
   20.0280   17.4040   20.9444 C   0  0  0  0  0  0  0  0  0  0  0  0
   19.0713   17.0080   21.3096 H   0  0  0  0  0  0  0  0  0  0  0  0
   20.1260   17.1307   19.8856 H   0  0  0  0  0  0  0  0  0  0  0  0
   20.8376   16.9105   21.4981 H   0  0  0  0  0  0  0  0  0  0  0  0
  1  2  1  0  0  0  0
  1  3  2  0  0  0  0
  1  4  1  0  0  0  0
  4  5  1  0  0  0  0
  4  6  1  0  0  0  0
  4  7  1  0  0  0  0
  7  8  1  0  0  0  0
  7  9  1  0  0  0  0
  7 10  1  0  0  0  0
 10 11  1  0  0  0  0
 10 12  1  0  0  0  0
 10 13  1  0  0  0  0
M  END
> <VConfSearch Rank>
65

> <Conf_Id>
0

> <Delta U+W>
0.000

> <U+W>
-58.332

> <U>
8.390

> <W>
-66.722

> <W(PB)>
-68.455

> <W(SA)>
1.733

> <Valence>
6.333

> <Coulomb>
1.215

> <VdW>
0.842

> <VdW6>
-3.344

> <VdW12>
4.186

> <Bond>
0.091

> <Angle>
2.713

> <Pdih>
3.529

> <Idih>
0.000

> <Tether>
0.000

$$$$
VeraChem MOL file


 13 12  0  0  0  0  0  0  0  0999 V2000     
   22.0899   19.2087   21.9716 C   0  0  0  0  0  0  0  0  0  0  0  0
   22.5163   19.7565   22.9684 O   0  5  0  0  0  0  0  0  0  0  0  0
   22.7008   19.1530   20.9232 O   0  0  0  0  0  0  0  0  0  0  0  0
   20.7052   18.5730   22.0342 C   0  0  0  0  0  0  0  0  0  0  0  0
   20.5465   18.2002   23.0535 H   0  0  0  0  0  0  0  0  0  0  0  0
   20.6987   17.7025   21.3669 H   0  0  0  0  0  0  0  0  0  0  0  0
   19.5725   19.5525   21.6430 C   0  0  0  0  0  0  0  0  0  0  0  0
   19.5949   20.4246   22.3114 H   0  0  0  0  0  0  0  0  0  0  0  0
   19.7471   19.9268   20.6245 H   0  0  0  0  0  0  0  0  0  0  0  0
   18.1868   18.8803   21.7164 C   0  0  0  0  0  0  0  0  0  0  0  0
   17.3974   19.5897   21.4358 H   0  0  0  0  0  0  0  0  0  0  0  0
   18.1299   18.0223   21.0336 H   0  0  0  0  0  0  0  0  0  0  0  0
   17.9766   18.5240   22.7335 H   0  0  0  0  0  0  0  0  0  0  0  0
  1  2  1  0  0  0  0
  1  3  2  0  0  0  0
  1  4  1  0  0  0  0
  4  5  1  0  0  0  0
  4  6  1  0  0  0  0
  4  7  1  0  0  0  0
  7  8  1  0  0  0  0
  7  9  1  0  0  0  0
  7 10  1  0  0  0  0
 10 11  1  0  0  0  0
 10 12  1  0  0  0  0
 10 13  1  0  0  0  0
M  END
> <VConfSearch Rank>
66

> <Conf_Id>
1

> <Delta U+W>
-1.339

> <U+W>
-59.672

> <U>
7.389

> <W>
-67.061

> <W(PB)>
-68.767

> <W(SA)>
1.707

> <Valence>
5.822

> <Coulomb>
1.255

> <VdW>
0.312

> <VdW6>
-3.061

> <VdW12>
3.372

> <Bond>
0.059

> <Angle>
2.241

> <Pdih>
3.522

> <Idih>
0.000

> <Tether>
0.000

$$$$
VeraChem MOL file


 13 12  0  0  0  0  0  0  0  0999 V2000     
   20.4816   18.2974   20.3739 C   0  0  0  0  0  0  0  0  0  0  0  0
   19.7241   17.4355   19.9747 O   0  5  0  0  0  0  0  0  0  0  0  0
   20.9353   19.1718   19.6628 O   0  0  0  0  0  0  0  0  0  0  0  0
   20.9126   18.2561   21.8379 C   0  0  0  0  0  0  0  0  0  0  0  0
   21.8116   18.8732   21.9572 H   0  0  0  0  0  0  0  0  0  0  0  0
   21.2050   17.2237   22.0636 H   0  0  0  0  0  0  0  0  0  0  0  0
   19.8164   18.7112   22.8352 C   0  0  0  0  0  0  0  0  0  0  0  0
   18.9067   18.1145   22.6792 H   0  0  0  0  0  0  0  0  0  0  0  0
   20.1554   18.5077   23.8601 H   0  0  0  0  0  0  0  0  0  0  0  0
   19.4841   20.2119   22.7029 C   0  0  0  0  0  0  0  0  0  0  0  0
   19.0990   20.4440   21.7011 H   0  0  0  0  0  0  0  0  0  0  0  0
   18.7204   20.5050   23.4349 H   0  0  0  0  0  0  0  0  0  0  0  0
   20.3759   20.8281   22.8772 H   0  0  0  0  0  0  0  0  0  0  0  0
  1  2  1  0  0  0  0
  1  3  2  0  0  0  0
  1  4  1  0  0  0  0
  4  5  1  0  0  0  0
  4  6  1  0  0  0  0
  4  7  1  0  0  0  0
  7  8  1  0  0  0  0
  7  9  1  0  0  0  0
  7 10  1  0  0  0  0
 10 11  1  0  0  0  0
 10 12  1  0  0  0  0
 10 13  1  0  0  0  0
M  END
> <VConfSearch Rank>
67

> <Conf_Id>
4

> <Delta U+W>
0.281

> <U+W>
-58.051

> <U>
9.781

> <W>
-67.832

> <W(PB)>
-69.535

> <W(SA)>
1.703

> <Valence>
6.123

> <Coulomb>
3.449

> <VdW>
0.209

> <VdW6>
-3.762

> <VdW12>
3.972

> <Bond>
0.078

> <Angle>
2.428

> <Pdih>
3.616

> <Idih>
0.002

> <Tether>
0.000

$$$$
VeraChem MOL file


 13 12  0  0  0  0  0  0  0  0999 V2000     
   19.6720   17.2339   22.0732 C   0  0  0  0  0  0  0  0  0  0  0  0
   19.5049   16.8062   20.9485 O   0  5  0  0  0  0  0  0  0  0  0  0
   20.1883   16.5898   22.9646 O   0  0  0  0  0  0  0  0  0  0  0  0
   19.1759   18.6412   22.3957 C   0  0  0  0  0  0  0  0  0  0  0  0
   18.6061   18.5808   23.3306 H   0  0  0  0  0  0  0  0  0  0  0  0
   18.4713   18.9530   21.6149 H   0  0  0  0  0  0  0  0  0  0  0  0
   20.3048   19.6929   22.5470 C   0  0  0  0  0  0  0  0  0  0  0  0
   19.8747   20.6310   22.9237 H   0  0  0  0  0  0  0  0  0  0  0  0
   21.0270   19.3512   23.3018 H   0  0  0  0  0  0  0  0  0  0  0  0
   21.0343   19.9716   21.2166 C   0  0  0  0  0  0  0  0  0  0  0  0
   20.3337   20.3358   20.4537 H   0  0  0  0  0  0  0  0  0  0  0  0
   21.8126   20.7334   21.3543 H   0  0  0  0  0  0  0  0  0  0  0  0
   21.5153   19.0623   20.8323 H   0  0  0  0  0  0  0  0  0  0  0  0
  1  2  1  0  0  0  0
  1  3  2  0  0  0  0
  1  4  1  0  0  0  0
  4  5  1  0  0  0  0
  4  6  1  0  0  0  0
  4  7  1  0  0  0  0
  7  8  1  0  0  0  0
  7  9  1  0  0  0  0
  7 10  1  0  0  0  0
 10 11  1  0  0  0  0
 10 12  1  0  0  0  0
 10 13  1  0  0  0  0
M  END
> <VConfSearch Rank>
68

> <Conf_Id>
36

> <Delta U+W>
0.272

> <U+W>
-58.060

> <U>
9.781

> <W>
-67.841

> <W(PB)>
-69.537

> <W(SA)>
1.696

> <Valence>
6.123

> <Coulomb>
3.449

> <VdW>
0.209

> <VdW6>
-3.762

> <VdW12>
3.972

> <Bond>
0.078

> <Angle>
2.428

> <Pdih>
3.616

> <Idih>
0.002

> <Tether>
0.000

$$$$
VeraChem MOL file


 13 12  0  0  0  0  0  0  0  0999 V2000     
   20.7356   19.2053   19.8215 C   0  0  0  0  0  0  0  0  0  0  0  0
   21.9179   19.3908   20.0332 O   0  5  0  0  0  0  0  0  0  0  0  0
   20.2604   19.1759   18.7042 O   0  0  0  0  0  0  0  0  0  0  0  0
   19.7763   18.9962   20.9948 C   0  0  0  0  0  0  0  0  0  0  0  0
   19.2839   18.0277   20.8471 H   0  0  0  0  0  0  0  0  0  0  0  0
   18.9980   19.7653   20.9229 H   0  0  0  0  0  0  0  0  0  0  0  0
   20.4276   19.0420   22.4018 C   0  0  0  0  0  0  0  0  0  0  0  0
   21.2091   18.2724   22.4708 H   0  0  0  0  0  0  0  0  0  0  0  0
   20.9229   20.0122   22.5467 H   0  0  0  0  0  0  0  0  0  0  0  0
   19.3870   18.8221   23.5184 C   0  0  0  0  0  0  0  0  0  0  0  0
   18.8990   17.8441   23.4137 H   0  0  0  0  0  0  0  0  0  0  0  0
   19.8661   18.8579   24.5056 H   0  0  0  0  0  0  0  0  0  0  0  0
   18.6105   19.5978   23.4902 H   0  0  0  0  0  0  0  0  0  0  0  0
  1  2  1  0  0  0  0
  1  3  2  0  0  0  0
  1  4  1  0  0  0  0
  4  5  1  0  0  0  0
  4  6  1  0  0  0  0
  4  7  1  0  0  0  0
  7  8  1  0  0  0  0
  7  9  1  0  0  0  0
  7 10  1  0  0  0  0
 10 11  1  0  0  0  0
 10 12  1  0  0  0  0
 10 13  1  0  0  0  0
M  END
> <VConfSearch Rank>
69

> <Conf_Id>
0

> <Delta U+W>
0.000

> <U+W>
-58.332

> <U>
8.390

> <W>
-66.722

> <W(PB)>
-68.455

> <W(SA)>
1.733

> <Valence>
6.333

> <Coulomb>
1.215

> <VdW>
0.842

> <VdW6>
-3.344

> <VdW12>
4.186

> <Bond>
0.091

> <Angle>
2.713

> <Pdih>
3.529

> <Idih>
0.000

> <Tether>
0.000

$$$$
VeraChem MOL file


 13 12  0  0  0  0  0  0  0  0999 V2000     
   21.8321   19.7578   22.5729 C   0  0  0  0  0  0  0  0  0  0  0  0
   22.6782   20.0156   21.7404 O   0  5  0  0  0  0  0  0  0  0  0  0
   22.0892   19.4778   23.7265 O   0  0  0  0  0  0  0  0  0  0  0  0
   20.3693   19.7680   22.1419 C   0  0  0  0  0  0  0  0  0  0  0  0
   20.2487   20.5288   21.3612 H   0  0  0  0  0  0  0  0  0  0  0  0
   19.7631   20.0854   22.9991 H   0  0  0  0  0  0  0  0  0  0  0  0
   19.8822   18.3927   21.6251 C   0  0  0  0  0  0  0  0  0  0  0  0
   20.5027   18.0805   20.7734 H   0  0  0  0  0  0  0  0  0  0  0  0
   20.0168   17.6370   22.4116 H   0  0  0  0  0  0  0  0  0  0  0  0
   18.4014   18.4362   21.1977 C   0  0  0  0  0  0  0  0  0  0  0  0
   18.0747   17.4530   20.8346 H   0  0  0  0  0  0  0  0  0  0  0  0
   17.7573   18.7173   22.0412 H   0  0  0  0  0  0  0  0  0  0  0  0
   18.2469   19.1642   20.3904 H   0  0  0  0  0  0  0  0  0  0  0  0
  1  2  1  0  0  0  0
  1  3  2  0  0  0  0
  1  4  1  0  0  0  0
  4  5  1  0  0  0  0
  4  6  1  0  0  0  0
  4  7  1  0  0  0  0
  7  8  1  0  0  0  0
  7  9  1  0  0  0  0
  7 10  1  0  0  0  0
 10 11  1  0  0  0  0
 10 12  1  0  0  0  0
 10 13  1  0  0  0  0
M  END
> <VConfSearch Rank>
70

> <Conf_Id>
1

> <Delta U+W>
-1.339

> <U+W>
-59.672

> <U>
7.389

> <W>
-67.061

> <W(PB)>
-68.767

> <W(SA)>
1.707

> <Valence>
5.822

> <Coulomb>
1.255

> <VdW>
0.312

> <VdW6>
-3.061

> <VdW12>
3.372

> <Bond>
0.059

> <Angle>
2.241

> <Pdih>
3.522

> <Idih>
0.000

> <Tether>
0.000

$$$$
VeraChem MOL file


 13 12  0  0  0  0  0  0  0  0999 V2000     
   20.1638   19.0071   23.7880 C   0  0  0  0  0  0  0  0  0  0  0  0
   19.3881   18.2632   24.3546 O   0  5  0  0  0  0  0  0  0  0  0  0
   21.3014   19.2028   24.1667 O   0  0  0  0  0  0  0  0  0  0  0  0
   19.6689   19.7616   22.5565 C   0  0  0  0  0  0  0  0  0  0  0  0
   20.3469   20.6020   22.3633 H   0  0  0  0  0  0  0  0  0  0  0  0
   18.6929   20.1936   22.8080 H   0  0  0  0  0  0  0  0  0  0  0  0
   19.5321   18.8831   21.2865 C   0  0  0  0  0  0  0  0  0  0  0  0
   18.8842   18.0221   21.5030 H   0  0  0  0  0  0  0  0  0  0  0  0
   19.0324   19.4639   20.4992 H   0  0  0  0  0  0  0  0  0  0  0  0
   20.8957   18.3897   20.7602 C   0  0  0  0  0  0  0  0  0  0  0  0
   21.4052   17.7668   21.5073 H   0  0  0  0  0  0  0  0  0  0  0  0
   20.7649   17.7884   19.8512 H   0  0  0  0  0  0  0  0  0  0  0  0
   21.5516   19.2357   20.5164 H   0  0  0  0  0  0  0  0  0  0  0  0
  1  2  1  0  0  0  0
  1  3  2  0  0  0  0
  1  4  1  0  0  0  0
  4  5  1  0  0  0  0
  4  6  1  0  0  0  0
  4  7  1  0  0  0  0
  7  8  1  0  0  0  0
  7  9  1  0  0  0  0
  7 10  1  0  0  0  0
 10 11  1  0  0  0  0
 10 12  1  0  0  0  0
 10 13  1  0  0  0  0
M  END
> <VConfSearch Rank>
71

> <Conf_Id>
4

> <Delta U+W>
0.281

> <U+W>
-58.051

> <U>
9.781

> <W>
-67.832

> <W(PB)>
-69.535

> <W(SA)>
1.703

> <Valence>
6.123

> <Coulomb>
3.449

> <VdW>
0.209

> <VdW6>
-3.762

> <VdW12>
3.972

> <Bond>
0.078

> <Angle>
2.428

> <Pdih>
3.616

> <Idih>
0.002

> <Tether>
0.000

$$$$
VeraChem MOL file


 13 12  0  0  0  0  0  0  0  0999 V2000     
   19.5244   20.0037   20.6600 C   0  0  0  0  0  0  0  0  0  0  0  0
   19.2508   21.1066   21.0899 O   0  5  0  0  0  0  0  0  0  0  0  0
   20.0349   19.8162   19.5736 O   0  0  0  0  0  0  0  0  0  0  0  0
   19.1768   18.7858   21.5125 C   0  0  0  0  0  0  0  0  0  0  0  0
   18.6625   18.0678   20.8626 H   0  0  0  0  0  0  0  0  0  0  0  0
   18.4562   19.0894   22.2818 H   0  0  0  0  0  0  0  0  0  0  0  0
   20.4024   18.1005   22.1695 C   0  0  0  0  0  0  0  0  0  0  0  0
   20.0818   17.1576   22.6331 H   0  0  0  0  0  0  0  0  0  0  0  0
   21.1361   17.8378   21.3946 H   0  0  0  0  0  0  0  0  0  0  0  0
   21.0706   18.9870   23.2407 C   0  0  0  0  0  0  0  0  0  0  0  0
   20.3598   19.2432   24.0373 H   0  0  0  0  0  0  0  0  0  0  0  0
   21.9209   18.4655   23.6991 H   0  0  0  0  0  0  0  0  0  0  0  0
   21.4439   19.9221   22.8024 H   0  0  0  0  0  0  0  0  0  0  0  0
  1  2  1  0  0  0  0
  1  3  2  0  0  0  0
  1  4  1  0  0  0  0
  4  5  1  0  0  0  0
  4  6  1  0  0  0  0
  4  7  1  0  0  0  0
  7  8  1  0  0  0  0
  7  9  1  0  0  0  0
  7 10  1  0  0  0  0
 10 11  1  0  0  0  0
 10 12  1  0  0  0  0
 10 13  1  0  0  0  0
M  END
> <VConfSearch Rank>
72

> <Conf_Id>
36

> <Delta U+W>
0.272

> <U+W>
-58.060

> <U>
9.781

> <W>
-67.841

> <W(PB)>
-69.537

> <W(SA)>
1.696

> <Valence>
6.123

> <Coulomb>
3.449

> <VdW>
0.209

> <VdW6>
-3.762

> <VdW12>
3.972

> <Bond>
0.078

> <Angle>
2.428

> <Pdih>
3.616

> <Idih>
0.002

> <Tether>
0.000

$$$$
VeraChem MOL file


 13 12  0  0  0  0  0  0  0  0999 V2000     
   18.0953   19.4116   21.0059 C   0  0  0  0  0  0  0  0  0  0  0  0
   17.3929   19.0939   21.9456 O   0  5  0  0  0  0  0  0  0  0  0  0
   17.6478   19.8314   19.9579 O   0  0  0  0  0  0  0  0  0  0  0  0
   19.6162   19.2883   21.1172 C   0  0  0  0  0  0  0  0  0  0  0  0
   20.0403   20.2812   20.9259 H   0  0  0  0  0  0  0  0  0  0  0  0
   19.9524   18.6344   20.3037 H   0  0  0  0  0  0  0  0  0  0  0  0
   20.1416   18.7481   22.4729 C   0  0  0  0  0  0  0  0  0  0  0  0
   19.8012   19.4032   23.2870 H   0  0  0  0  0  0  0  0  0  0  0  0
   19.7130   17.7543   22.6641 H   0  0  0  0  0  0  0  0  0  0  0  0
   21.6809   18.6585   22.4922 C   0  0  0  0  0  0  0  0  0  0  0  0
   22.1340   19.6460   22.3341 H   0  0  0  0  0  0  0  0  0  0  0  0
   22.0336   18.2746   23.4584 H   0  0  0  0  0  0  0  0  0  0  0  0
   22.0451   17.9840   21.7061 H   0  0  0  0  0  0  0  0  0  0  0  0
  1  2  1  0  0  0  0
  1  3  2  0  0  0  0
  1  4  1  0  0  0  0
  4  5  1  0  0  0  0
  4  6  1  0  0  0  0
  4  7  1  0  0  0  0
  7  8  1  0  0  0  0
  7  9  1  0  0  0  0
  7 10  1  0  0  0  0
 10 11  1  0  0  0  0
 10 12  1  0  0  0  0
 10 13  1  0  0  0  0
M  END
> <VConfSearch Rank>
73

> <Conf_Id>
0

> <Delta U+W>
0.000

> <U+W>
-58.332

> <U>
8.390

> <W>
-66.722

> <W(PB)>
-68.455

> <W(SA)>
1.733

> <Valence>
6.333

> <Coulomb>
1.215

> <VdW>
0.842

> <VdW6>
-3.344

> <VdW12>
4.186

> <Bond>
0.091

> <Angle>
2.713

> <Pdih>
3.529

> <Idih>
0.000

> <Tether>
0.000

$$$$
VeraChem MOL file


 13 12  0  0  0  0  0  0  0  0999 V2000     
   21.6798   19.8362   20.8480 C   0  0  0  0  0  0  0  0  0  0  0  0
   21.7661   21.0476   20.8314 O   0  5  0  0  0  0  0  0  0  0  0  0
   22.2086   19.1144   20.0265 O   0  0  0  0  0  0  0  0  0  0  0  0
   20.8471   19.1873   21.9485 C   0  0  0  0  0  0  0  0  0  0  0  0
   20.9285   19.8080   22.8491 H   0  0  0  0  0  0  0  0  0  0  0  0
   21.2934   18.2138   22.1853 H   0  0  0  0  0  0  0  0  0  0  0  0
   19.3602   19.0103   21.5562 C   0  0  0  0  0  0  0  0  0  0  0  0
   18.9266   19.9901   21.3117 H   0  0  0  0  0  0  0  0  0  0  0  0
   19.2916   18.3955   20.6479 H   0  0  0  0  0  0  0  0  0  0  0  0
   18.5464   18.3526   22.6887 C   0  0  0  0  0  0  0  0  0  0  0  0
   17.4958   18.2356   22.3922 H   0  0  0  0  0  0  0  0  0  0  0  0
   18.9431   17.3579   22.9309 H   0  0  0  0  0  0  0  0  0  0  0  0
   18.5753   18.9647   23.5997 H   0  0  0  0  0  0  0  0  0  0  0  0
  1  2  1  0  0  0  0
  1  3  2  0  0  0  0
  1  4  1  0  0  0  0
  4  5  1  0  0  0  0
  4  6  1  0  0  0  0
  4  7  1  0  0  0  0
  7  8  1  0  0  0  0
  7  9  1  0  0  0  0
  7 10  1  0  0  0  0
 10 11  1  0  0  0  0
 10 12  1  0  0  0  0
 10 13  1  0  0  0  0
M  END
> <VConfSearch Rank>
74

> <Conf_Id>
1

> <Delta U+W>
-1.339

> <U+W>
-59.672

> <U>
7.389

> <W>
-67.061

> <W(PB)>
-68.767

> <W(SA)>
1.707

> <Valence>
5.822

> <Coulomb>
1.255

> <VdW>
0.312

> <VdW6>
-3.061

> <VdW12>
3.372

> <Bond>
0.059

> <Angle>
2.241

> <Pdih>
3.522

> <Idih>
0.000

> <Tether>
0.000

$$$$
VeraChem MOL file


 13 12  0  0  0  0  0  0  0  0999 V2000     
   21.8592   19.2339   21.6317 C   0  0  0  0  0  0  0  0  0  0  0  0
   22.1013   19.8391   20.6064 O   0  5  0  0  0  0  0  0  0  0  0  0
   22.4730   19.3982   22.6671 O   0  0  0  0  0  0  0  0  0  0  0  0
   20.7483   18.1870   21.6048 C   0  0  0  0  0  0  0  0  0  0  0  0
   20.8671   17.5262   22.4724 H   0  0  0  0  0  0  0  0  0  0  0  0
   20.9031   17.5687   20.7125 H   0  0  0  0  0  0  0  0  0  0  0  0
   19.3167   18.7812   21.5783 C   0  0  0  0  0  0  0  0  0  0  0  0
   19.2214   19.4730   20.7297 H   0  0  0  0  0  0  0  0  0  0  0  0
   18.5941   17.9714   21.4081 H   0  0  0  0  0  0  0  0  0  0  0  0
   18.9561   19.5112   22.8887 C   0  0  0  0  0  0  0  0  0  0  0  0
   19.6331   20.3569   23.0685 H   0  0  0  0  0  0  0  0  0  0  0  0
   17.9313   19.9020   22.8444 H   0  0  0  0  0  0  0  0  0  0  0  0
   19.0235   18.8312   23.7481 H   0  0  0  0  0  0  0  0  0  0  0  0
  1  2  1  0  0  0  0
  1  3  2  0  0  0  0
  1  4  1  0  0  0  0
  4  5  1  0  0  0  0
  4  6  1  0  0  0  0
  4  7  1  0  0  0  0
  7  8  1  0  0  0  0
  7  9  1  0  0  0  0
  7 10  1  0  0  0  0
 10 11  1  0  0  0  0
 10 12  1  0  0  0  0
 10 13  1  0  0  0  0
M  END
> <VConfSearch Rank>
75

> <Conf_Id>
4

> <Delta U+W>
0.281

> <U+W>
-58.051

> <U>
9.781

> <W>
-67.832

> <W(PB)>
-69.535

> <W(SA)>
1.703

> <Valence>
6.123

> <Coulomb>
3.449

> <VdW>
0.209

> <VdW6>
-3.762

> <VdW12>
3.972

> <Bond>
0.078

> <Angle>
2.428

> <Pdih>
3.616

> <Idih>
0.002

> <Tether>
0.000

$$$$
VeraChem MOL file


 13 12  0  0  0  0  0  0  0  0999 V2000     
   21.0301   17.8465   20.9387 C   0  0  0  0  0  0  0  0  0  0  0  0
   21.1537   16.7728   21.4935 O   0  5  0  0  0  0  0  0  0  0  0  0
   20.8389   17.9652   19.7448 O   0  0  0  0  0  0  0  0  0  0  0  0
   21.1570   19.1157   21.7775 C   0  0  0  0  0  0  0  0  0  0  0  0
   21.8435   19.7889   21.2503 H   0  0  0  0  0  0  0  0  0  0  0  0
   21.6344   18.8602   22.7315 H   0  0  0  0  0  0  0  0  0  0  0  0
   19.8131   19.8455   22.0316 C   0  0  0  0  0  0  0  0  0  0  0  0
   20.0144   20.8154   22.5067 H   0  0  0  0  0  0  0  0  0  0  0  0
   19.3237   20.0599   21.0712 H   0  0  0  0  0  0  0  0  0  0  0  0
   18.8604   19.0318   22.9316 C   0  0  0  0  0  0  0  0  0  0  0  0
   19.3219   18.8254   23.9062 H   0  0  0  0  0  0  0  0  0  0  0  0
   17.9282   19.5843   23.1075 H   0  0  0  0  0  0  0  0  0  0  0  0
   18.6016   18.0715   22.4660 H   0  0  0  0  0  0  0  0  0  0  0  0
  1  2  1  0  0  0  0
  1  3  2  0  0  0  0
  1  4  1  0  0  0  0
  4  5  1  0  0  0  0
  4  6  1  0  0  0  0
  4  7  1  0  0  0  0
  7  8  1  0  0  0  0
  7  9  1  0  0  0  0
  7 10  1  0  0  0  0
 10 11  1  0  0  0  0
 10 12  1  0  0  0  0
 10 13  1  0  0  0  0
M  END
> <VConfSearch Rank>
76

> <Conf_Id>
36

> <Delta U+W>
0.272

> <U+W>
-58.060

> <U>
9.781

> <W>
-67.841

> <W(PB)>
-69.537

> <W(SA)>
1.696

> <Valence>
6.123

> <Coulomb>
3.449

> <VdW>
0.209

> <VdW6>
-3.762

> <VdW12>
3.972

> <Bond>
0.078

> <Angle>
2.428

> <Pdih>
3.616

> <Idih>
0.002

> <Tether>
0.000

$$$$
VeraChem MOL file


 13 12  0  0  0  0  0  0  0  0999 V2000     
   22.0470   18.5581   22.3243 C   0  0  0  0  0  0  0  0  0  0  0  0
   22.5096   18.3779   21.2148 O   0  5  0  0  0  0  0  0  0  0  0  0
   22.7082   18.4681   23.3390 O   0  0  0  0  0  0  0  0  0  0  0  0
   20.5679   18.9154   22.4830 C   0  0  0  0  0  0  0  0  0  0  0  0
   20.5171   19.8690   23.0219 H   0  0  0  0  0  0  0  0  0  0  0  0
   20.1152   18.1563   23.1320 H   0  0  0  0  0  0  0  0  0  0  0  0
   19.7638   19.0191   21.1607 C   0  0  0  0  0  0  0  0  0  0  0  0
   20.2208   19.7782   20.5106 H   0  0  0  0  0  0  0  0  0  0  0  0
   19.8184   18.0635   20.6207 H   0  0  0  0  0  0  0  0  0  0  0  0
   18.2875   19.3821   21.4189 C   0  0  0  0  0  0  0  0  0  0  0  0
   18.2046   20.3499   21.9308 H   0  0  0  0  0  0  0  0  0  0  0  0
   17.7352   19.4508   20.4726 H   0  0  0  0  0  0  0  0  0  0  0  0
   17.7990   18.6213   22.0419 H   0  0  0  0  0  0  0  0  0  0  0  0
  1  2  1  0  0  0  0
  1  3  2  0  0  0  0
  1  4  1  0  0  0  0
  4  5  1  0  0  0  0
  4  6  1  0  0  0  0
  4  7  1  0  0  0  0
  7  8  1  0  0  0  0
  7  9  1  0  0  0  0
  7 10  1  0  0  0  0
 10 11  1  0  0  0  0
 10 12  1  0  0  0  0
 10 13  1  0  0  0  0
M  END
> <VConfSearch Rank>
77

> <Conf_Id>
0

> <Delta U+W>
0.000

> <U+W>
-58.332

> <U>
8.390

> <W>
-66.722

> <W(PB)>
-68.455

> <W(SA)>
1.733

> <Valence>
6.333

> <Coulomb>
1.215

> <VdW>
0.842

> <VdW6>
-3.344

> <VdW12>
4.186

> <Bond>
0.091

> <Angle>
2.713

> <Pdih>
3.529

> <Idih>
0.000

> <Tether>
0.000

$$$$
VeraChem MOL file


 13 12  0  0  0  0  0  0  0  0999 V2000     
   21.4345   18.9888   20.2927 C   0  0  0  0  0  0  0  0  0  0  0  0
   21.0042   18.9690   19.1570 O   0  5  0  0  0  0  0  0  0  0  0  0
   22.5300   18.5655   20.6027 O   0  0  0  0  0  0  0  0  0  0  0  0
   20.5440   19.5587   21.3916 C   0  0  0  0  0  0  0  0  0  0  0  0
   19.9308   20.3564   20.9549 H   0  0  0  0  0  0  0  0  0  0  0  0
   21.1891   20.0237   22.1470 H   0  0  0  0  0  0  0  0  0  0  0  0
   19.6379   18.4903   22.0498 C   0  0  0  0  0  0  0  0  0  0  0  0
   19.0036   18.0246   21.2826 H   0  0  0  0  0  0  0  0  0  0  0  0
   20.2621   17.6919   22.4751 H   0  0  0  0  0  0  0  0  0  0  0  0
   18.7510   19.0976   23.1552 C   0  0  0  0  0  0  0  0  0  0  0  0
   18.1164   18.3255   23.6096 H   0  0  0  0  0  0  0  0  0  0  0  0
   19.3637   19.5435   23.9497 H   0  0  0  0  0  0  0  0  0  0  0  0
   18.0955   19.8787   22.7481 H   0  0  0  0  0  0  0  0  0  0  0  0
  1  2  1  0  0  0  0
  1  3  2  0  0  0  0
  1  4  1  0  0  0  0
  4  5  1  0  0  0  0
  4  6  1  0  0  0  0
  4  7  1  0  0  0  0
  7  8  1  0  0  0  0
  7  9  1  0  0  0  0
  7 10  1  0  0  0  0
 10 11  1  0  0  0  0
 10 12  1  0  0  0  0
 10 13  1  0  0  0  0
M  END
> <VConfSearch Rank>
78

> <Conf_Id>
1

> <Delta U+W>
-1.339

> <U+W>
-59.672

> <U>
7.389

> <W>
-67.061

> <W(PB)>
-68.767

> <W(SA)>
1.707

> <Valence>
5.822

> <Coulomb>
1.255

> <VdW>
0.312

> <VdW6>
-3.061

> <VdW12>
3.372

> <Bond>
0.059

> <Angle>
2.241

> <Pdih>
3.522

> <Idih>
0.000

> <Tether>
0.000

$$$$
VeraChem MOL file


 13 12  0  0  0  0  0  0  0  0999 V2000     
   19.3673   17.4081   22.4486 C   0  0  0  0  0  0  0  0  0  0  0  0
   18.5060   16.9963   21.6971 O   0  5  0  0  0  0  0  0  0  0  0  0
   20.1940   16.6912   22.9764 O   0  0  0  0  0  0  0  0  0  0  0  0
   19.3872   18.8998   22.7730 C   0  0  0  0  0  0  0  0  0  0  0  0
   19.9867   19.0545   23.6785 H   0  0  0  0  0  0  0  0  0  0  0  0
   18.3601   19.1946   23.0191 H   0  0  0  0  0  0  0  0  0  0  0  0
   19.9181   19.7925   21.6221 C   0  0  0  0  0  0  0  0  0  0  0  0
   19.3374   19.5995   20.7092 H   0  0  0  0  0  0  0  0  0  0  0  0
   19.7568   20.8478   21.8815 H   0  0  0  0  0  0  0  0  0  0  0  0
   21.4183   19.5658   21.3431 C   0  0  0  0  0  0  0  0  0  0  0  0
   21.6105   18.5289   21.0369 H   0  0  0  0  0  0  0  0  0  0  0  0
   21.7661   20.2260   20.5379 H   0  0  0  0  0  0  0  0  0  0  0  0
   22.0198   19.7749   22.2374 H   0  0  0  0  0  0  0  0  0  0  0  0
  1  2  1  0  0  0  0
  1  3  2  0  0  0  0
  1  4  1  0  0  0  0
  4  5  1  0  0  0  0
  4  6  1  0  0  0  0
  4  7  1  0  0  0  0
  7  8  1  0  0  0  0
  7  9  1  0  0  0  0
  7 10  1  0  0  0  0
 10 11  1  0  0  0  0
 10 12  1  0  0  0  0
 10 13  1  0  0  0  0
M  END
> <VConfSearch Rank>
79

> <Conf_Id>
4

> <Delta U+W>
0.281

> <U+W>
-58.051

> <U>
9.781

> <W>
-67.832

> <W(PB)>
-69.535

> <W(SA)>
1.703

> <Valence>
6.123

> <Coulomb>
3.449

> <VdW>
0.209

> <VdW6>
-3.762

> <VdW12>
3.972

> <Bond>
0.078

> <Angle>
2.428

> <Pdih>
3.616

> <Idih>
0.002

> <Tether>
0.000

$$$$
VeraChem MOL file


 13 12  0  0  0  0  0  0  0  0999 V2000     
   20.8912   17.5276   21.2640 C   0  0  0  0  0  0  0  0  0  0  0  0
   22.0734   17.5142   21.5433 O   0  5  0  0  0  0  0  0  0  0  0  0
   20.2058   16.5262   21.2044 O   0  0  0  0  0  0  0  0  0  0  0  0
   20.2383   18.8679   20.9352 C   0  0  0  0  0  0  0  0  0  0  0  0
   19.6690   18.7354   20.0074 H   0  0  0  0  0  0  0  0  0  0  0  0
   21.0268   19.5998   20.7211 H   0  0  0  0  0  0  0  0  0  0  0  0
   19.2982   19.4050   22.0447 C   0  0  0  0  0  0  0  0  0  0  0  0
   18.7608   20.2852   21.6661 H   0  0  0  0  0  0  0  0  0  0  0  0
   18.5374   18.6478   22.2804 H   0  0  0  0  0  0  0  0  0  0  0  0
   20.0613   19.7940   23.3278 C   0  0  0  0  0  0  0  0  0  0  0  0
   20.8125   20.5668   23.1186 H   0  0  0  0  0  0  0  0  0  0  0  0
   19.3703   20.1880   24.0844 H   0  0  0  0  0  0  0  0  0  0  0  0
   20.5759   18.9253   23.7596 H   0  0  0  0  0  0  0  0  0  0  0  0
  1  2  1  0  0  0  0
  1  3  2  0  0  0  0
  1  4  1  0  0  0  0
  4  5  1  0  0  0  0
  4  6  1  0  0  0  0
  4  7  1  0  0  0  0
  7  8  1  0  0  0  0
  7  9  1  0  0  0  0
  7 10  1  0  0  0  0
 10 11  1  0  0  0  0
 10 12  1  0  0  0  0
 10 13  1  0  0  0  0
M  END
> <VConfSearch Rank>
80

> <Conf_Id>
36

> <Delta U+W>
0.272

> <U+W>
-58.060

> <U>
9.781

> <W>
-67.841

> <W(PB)>
-69.537

> <W(SA)>
1.696

> <Valence>
6.123

> <Coulomb>
3.449

> <VdW>
0.209

> <VdW6>
-3.762

> <VdW12>
3.972

> <Bond>
0.078

> <Angle>
2.428

> <Pdih>
3.616

> <Idih>
0.002

> <Tether>
0.000

$$$$
VeraChem MOL file


 13 12  0  0  0  0  0  0  0  0999 V2000     
   20.5641   20.2401   20.1721 C   0  0  0  0  0  0  0  0  0  0  0  0
   19.5947   20.0805   19.4563 O   0  5  0  0  0  0  0  0  0  0  0  0
   21.5000   20.9521   19.8689 O   0  0  0  0  0  0  0  0  0  0  0  0
   20.6385   19.5249   21.5225 C   0  0  0  0  0  0  0  0  0  0  0  0
   20.7602   20.2941   22.2944 H   0  0  0  0  0  0  0  0  0  0  0  0
   21.5545   18.9220   21.5240 H   0  0  0  0  0  0  0  0  0  0  0  0
   19.4215   18.6270   21.8668 C   0  0  0  0  0  0  0  0  0  0  0  0
   18.5043   19.2324   21.8619 H   0  0  0  0  0  0  0  0  0  0  0  0
   19.2996   17.8587   21.0905 H   0  0  0  0  0  0  0  0  0  0  0  0
   19.5849   17.9492   23.2422 C   0  0  0  0  0  0  0  0  0  0  0  0
   19.6777   18.6973   24.0404 H   0  0  0  0  0  0  0  0  0  0  0  0
   18.7151   17.3187   23.4682 H   0  0  0  0  0  0  0  0  0  0  0  0
   20.4793   17.3127   23.2628 H   0  0  0  0  0  0  0  0  0  0  0  0
  1  2  1  0  0  0  0
  1  3  2  0  0  0  0
  1  4  1  0  0  0  0
  4  5  1  0  0  0  0
  4  6  1  0  0  0  0
  4  7  1  0  0  0  0
  7  8  1  0  0  0  0
  7  9  1  0  0  0  0
  7 10  1  0  0  0  0
 10 11  1  0  0  0  0
 10 12  1  0  0  0  0
 10 13  1  0  0  0  0
M  END
> <VConfSearch Rank>
81

> <Conf_Id>
0

> <Delta U+W>
0.000

> <U+W>
-58.332

> <U>
8.390

> <W>
-66.722

> <W(PB)>
-68.455

> <W(SA)>
1.733

> <Valence>
6.333

> <Coulomb>
1.215

> <VdW>
0.842

> <VdW6>
-3.344

> <VdW12>
4.186

> <Bond>
0.091

> <Angle>
2.713

> <Pdih>
3.529

> <Idih>
0.000

> <Tether>
0.000

$$$$
VeraChem MOL file


 13 12  0  0  0  0  0  0  0  0999 V2000     
   21.0182   20.3500   20.5341 C   0  0  0  0  0  0  0  0  0  0  0  0
   21.1103   19.9920   19.3771 O   0  5  0  0  0  0  0  0  0  0  0  0
   21.7920   21.1243   21.0606 O   0  0  0  0  0  0  0  0  0  0  0  0
   19.8808   19.7823   21.3765 C   0  0  0  0  0  0  0  0  0  0  0  0
   19.0206   19.6113   20.7178 H   0  0  0  0  0  0  0  0  0  0  0  0
   19.5828   20.5450   22.1061 H   0  0  0  0  0  0  0  0  0  0  0  0
   20.2640   18.4706   22.1035 C   0  0  0  0  0  0  0  0  0  0  0  0
   20.5701   17.7176   21.3639 H   0  0  0  0  0  0  0  0  0  0  0  0
   21.1323   18.6515   22.7525 H   0  0  0  0  0  0  0  0  0  0  0  0
   19.0942   17.9229   22.9454 C   0  0  0  0  0  0  0  0  0  0  0  0
   19.3847   16.9937   23.4528 H   0  0  0  0  0  0  0  0  0  0  0  0
   18.7895   18.6470   23.7125 H   0  0  0  0  0  0  0  0  0  0  0  0
   18.2231   17.7059   22.3132 H   0  0  0  0  0  0  0  0  0  0  0  0
  1  2  1  0  0  0  0
  1  3  2  0  0  0  0
  1  4  1  0  0  0  0
  4  5  1  0  0  0  0
  4  6  1  0  0  0  0
  4  7  1  0  0  0  0
  7  8  1  0  0  0  0
  7  9  1  0  0  0  0
  7 10  1  0  0  0  0
 10 11  1  0  0  0  0
 10 12  1  0  0  0  0
 10 13  1  0  0  0  0
M  END
> <VConfSearch Rank>
82

> <Conf_Id>
1

> <Delta U+W>
-1.339

> <U+W>
-59.672

> <U>
7.389

> <W>
-67.061

> <W(PB)>
-68.767

> <W(SA)>
1.707

> <Valence>
5.822

> <Coulomb>
1.255

> <VdW>
0.312

> <VdW6>
-3.061

> <VdW12>
3.372

> <Bond>
0.059

> <Angle>
2.241

> <Pdih>
3.522

> <Idih>
0.000

> <Tether>
0.000

$$$$
VeraChem MOL file


 13 12  0  0  0  0  0  0  0  0999 V2000     
   19.4684   18.2071   23.4805 C   0  0  0  0  0  0  0  0  0  0  0  0
   20.2417   18.0983   24.4112 O   0  5  0  0  0  0  0  0  0  0  0  0
   18.3005   18.5143   23.6128 O   0  0  0  0  0  0  0  0  0  0  0  0
   19.9852   17.9067   22.0757 C   0  0  0  0  0  0  0  0  0  0  0  0
   19.1267   17.7356   21.4146 H   0  0  0  0  0  0  0  0  0  0  0  0
   20.5391   16.9617   22.1262 H   0  0  0  0  0  0  0  0  0  0  0  0
   20.9010   19.0103   21.4869 C   0  0  0  0  0  0  0  0  0  0  0  0
   21.7349   19.2028   22.1765 H   0  0  0  0  0  0  0  0  0  0  0  0
   21.3441   18.6478   20.5493 H   0  0  0  0  0  0  0  0  0  0  0  0
   20.1400   20.3234   21.2101 C   0  0  0  0  0  0  0  0  0  0  0  0
   19.7200   20.7388   22.1358 H   0  0  0  0  0  0  0  0  0  0  0  0
   20.8116   21.0756   20.7763 H   0  0  0  0  0  0  0  0  0  0  0  0
   19.3150   20.1577   20.5050 H   0  0  0  0  0  0  0  0  0  0  0  0
  1  2  1  0  0  0  0
  1  3  2  0  0  0  0
  1  4  1  0  0  0  0
  4  5  1  0  0  0  0
  4  6  1  0  0  0  0
  4  7  1  0  0  0  0
  7  8  1  0  0  0  0
  7  9  1  0  0  0  0
  7 10  1  0  0  0  0
 10 11  1  0  0  0  0
 10 12  1  0  0  0  0
 10 13  1  0  0  0  0
M  END
> <VConfSearch Rank>
83

> <Conf_Id>
4

> <Delta U+W>
0.281

> <U+W>
-58.051

> <U>
9.781

> <W>
-67.832

> <W(PB)>
-69.535

> <W(SA)>
1.703

> <Valence>
6.123

> <Coulomb>
3.449

> <VdW>
0.209

> <VdW6>
-3.762

> <VdW12>
3.972

> <Bond>
0.078

> <Angle>
2.428

> <Pdih>
3.616

> <Idih>
0.002

> <Tether>
0.000

$$$$
VeraChem MOL file


 13 12  0  0  0  0  0  0  0  0999 V2000     
   19.1795   20.4778   21.7683 C   0  0  0  0  0  0  0  0  0  0  0  0
   19.5946   21.3334   22.5243 O   0  5  0  0  0  0  0  0  0  0  0  0
   18.8085   20.7087   20.6346 O   0  0  0  0  0  0  0  0  0  0  0  0
   19.0843   19.0422   22.2789 C   0  0  0  0  0  0  0  0  0  0  0  0
   18.0868   18.6682   22.0192 H   0  0  0  0  0  0  0  0  0  0  0  0
   19.1428   19.0542   23.3743 H   0  0  0  0  0  0  0  0  0  0  0  0
   20.1598   18.0892   21.6973 C   0  0  0  0  0  0  0  0  0  0  0  0
   19.9266   17.0581   21.9963 H   0  0  0  0  0  0  0  0  0  0  0  0
   20.1200   18.1162   20.5993 H   0  0  0  0  0  0  0  0  0  0  0  0
   21.5831   18.4429   22.1759 C   0  0  0  0  0  0  0  0  0  0  0  0
   21.6509   18.4001   23.2709 H   0  0  0  0  0  0  0  0  0  0  0  0
   22.3165   17.7384   21.7625 H   0  0  0  0  0  0  0  0  0  0  0  0
   21.8674   19.4539   21.8553 H   0  0  0  0  0  0  0  0  0  0  0  0
  1  2  1  0  0  0  0
  1  3  2  0  0  0  0
  1  4  1  0  0  0  0
  4  5  1  0  0  0  0
  4  6  1  0  0  0  0
  4  7  1  0  0  0  0
  7  8  1  0  0  0  0
  7  9  1  0  0  0  0
  7 10  1  0  0  0  0
 10 11  1  0  0  0  0
 10 12  1  0  0  0  0
 10 13  1  0  0  0  0
M  END
> <VConfSearch Rank>
84

> <Conf_Id>
36

> <Delta U+W>
0.272

> <U+W>
-58.060

> <U>
9.781

> <W>
-67.841

> <W(PB)>
-69.537

> <W(SA)>
1.696

> <Valence>
6.123

> <Coulomb>
3.449

> <VdW>
0.209

> <VdW6>
-3.762

> <VdW12>
3.972

> <Bond>
0.078

> <Angle>
2.428

> <Pdih>
3.616

> <Idih>
0.002

> <Tether>
0.000

$$$$
VeraChem MOL file


 13 12  0  0  0  0  0  0  0  0999 V2000     
   19.2652   19.0923   19.8295 C   0  0  0  0  0  0  0  0  0  0  0  0
   18.7203   20.1784   19.8569 O   0  5  0  0  0  0  0  0  0  0  0  0
   19.2759   18.3824   18.8442 O   0  0  0  0  0  0  0  0  0  0  0  0
   19.9785   18.5673   21.0770 C   0  0  0  0  0  0  0  0  0  0  0  0
   21.0200   18.3667   20.7990 H   0  0  0  0  0  0  0  0  0  0  0  0
   19.5239   17.6029   21.3330 H   0  0  0  0  0  0  0  0  0  0  0  0
   19.9387   19.5074   22.3102 C   0  0  0  0  0  0  0  0  0  0  0  0
   20.3921   20.4743   22.0507 H   0  0  0  0  0  0  0  0  0  0  0  0
   18.8941   19.7096   22.5853 H   0  0  0  0  0  0  0  0  0  0  0  0
   20.6808   18.8966   23.5160 C   0  0  0  0  0  0  0  0  0  0  0  0
   21.7365   18.7137   23.2761 H   0  0  0  0  0  0  0  0  0  0  0  0
   20.6419   19.5754   24.3780 H   0  0  0  0  0  0  0  0  0  0  0  0
   20.2265   17.9428   23.8150 H   0  0  0  0  0  0  0  0  0  0  0  0
  1  2  1  0  0  0  0
  1  3  2  0  0  0  0
  1  4  1  0  0  0  0
  4  5  1  0  0  0  0
  4  6  1  0  0  0  0
  4  7  1  0  0  0  0
  7  8  1  0  0  0  0
  7  9  1  0  0  0  0
  7 10  1  0  0  0  0
 10 11  1  0  0  0  0
 10 12  1  0  0  0  0
 10 13  1  0  0  0  0
M  END
> <VConfSearch Rank>
85

> <Conf_Id>
0

> <Delta U+W>
0.000

> <U+W>
-58.332

> <U>
8.390

> <W>
-66.722

> <W(PB)>
-68.455

> <W(SA)>
1.733

> <Valence>
6.333

> <Coulomb>
1.215

> <VdW>
0.842

> <VdW6>
-3.344

> <VdW12>
4.186

> <Bond>
0.091

> <Angle>
2.713

> <Pdih>
3.529

> <Idih>
0.000

> <Tether>
0.000

$$$$
VeraChem MOL file


 13 12  0  0  0  0  0  0  0  0999 V2000     
   20.0872   17.2596   22.9645 C   0  0  0  0  0  0  0  0  0  0  0  0
   20.6441   17.3416   24.0408 O   0  5  0  0  0  0  0  0  0  0  0  0
   19.9837   16.2231   22.3397 O   0  0  0  0  0  0  0  0  0  0  0  0
   19.5029   18.5300   22.3560 C   0  0  0  0  0  0  0  0  0  0  0  0
   19.1614   19.1750   23.1748 H   0  0  0  0  0  0  0  0  0  0  0  0
   18.6168   18.2525   21.7720 H   0  0  0  0  0  0  0  0  0  0  0  0
   20.5121   19.2918   21.4632 C   0  0  0  0  0  0  0  0  0  0  0  0
   21.3992   19.5557   22.0558 H   0  0  0  0  0  0  0  0  0  0  0  0
   20.8544   18.6331   20.6527 H   0  0  0  0  0  0  0  0  0  0  0  0
   19.8916   20.5697   20.8639 C   0  0  0  0  0  0  0  0  0  0  0  0
   20.6215   21.0956   20.2347 H   0  0  0  0  0  0  0  0  0  0  0  0
   19.0194   20.3285   20.2420 H   0  0  0  0  0  0  0  0  0  0  0  0
   19.5684   21.2581   21.6559 H   0  0  0  0  0  0  0  0  0  0  0  0
  1  2  1  0  0  0  0
  1  3  2  0  0  0  0
  1  4  1  0  0  0  0
  4  5  1  0  0  0  0
  4  6  1  0  0  0  0
  4  7  1  0  0  0  0
  7  8  1  0  0  0  0
  7  9  1  0  0  0  0
  7 10  1  0  0  0  0
 10 11  1  0  0  0  0
 10 12  1  0  0  0  0
 10 13  1  0  0  0  0
M  END
> <VConfSearch Rank>
86

> <Conf_Id>
1

> <Delta U+W>
-1.339

> <U+W>
-59.672

> <U>
7.389

> <W>
-67.061

> <W(PB)>
-68.767

> <W(SA)>
1.707

> <Valence>
5.822

> <Coulomb>
1.255

> <VdW>
0.312

> <VdW6>
-3.061

> <VdW12>
3.372

> <Bond>
0.059

> <Angle>
2.241

> <Pdih>
3.522

> <Idih>
0.000

> <Tether>
0.000

$$$$
VeraChem MOL file


 13 12  0  0  0  0  0  0  0  0999 V2000     
   21.7119   19.6774   21.5616 C   0  0  0  0  0  0  0  0  0  0  0  0
   21.8265   20.8744   21.7355 O   0  5  0  0  0  0  0  0  0  0  0  0
   22.5951   18.8784   21.8015 O   0  0  0  0  0  0  0  0  0  0  0  0
   20.4012   19.1566   20.9773 C   0  0  0  0  0  0  0  0  0  0  0  0
   20.5670   18.1439   20.5897 H   0  0  0  0  0  0  0  0  0  0  0  0
   20.1531   19.7885   20.1162 H   0  0  0  0  0  0  0  0  0  0  0  0
   19.2159   19.1584   21.9765 C   0  0  0  0  0  0  0  0  0  0  0  0
   19.0848   20.1683   22.3898 H   0  0  0  0  0  0  0  0  0  0  0  0
   18.2901   18.9155   21.4372 H   0  0  0  0  0  0  0  0  0  0  0  0
   19.4102   18.1467   23.1248 C   0  0  0  0  0  0  0  0  0  0  0  0
   20.3052   18.3860   23.7144 H   0  0  0  0  0  0  0  0  0  0  0  0
   18.5462   18.1592   23.8018 H   0  0  0  0  0  0  0  0  0  0  0  0
   19.5211   17.1266   22.7345 H   0  0  0  0  0  0  0  0  0  0  0  0
  1  2  1  0  0  0  0
  1  3  2  0  0  0  0
  1  4  1  0  0  0  0
  4  5  1  0  0  0  0
  4  6  1  0  0  0  0
  4  7  1  0  0  0  0
  7  8  1  0  0  0  0
  7  9  1  0  0  0  0
  7 10  1  0  0  0  0
 10 11  1  0  0  0  0
 10 12  1  0  0  0  0
 10 13  1  0  0  0  0
M  END
> <VConfSearch Rank>
87

> <Conf_Id>
4

> <Delta U+W>
0.281

> <U+W>
-58.051

> <U>
9.781

> <W>
-67.832

> <W(PB)>
-69.535

> <W(SA)>
1.703

> <Valence>
6.123

> <Coulomb>
3.449

> <VdW>
0.209

> <VdW6>
-3.762

> <VdW12>
3.972

> <Bond>
0.078

> <Angle>
2.428

> <Pdih>
3.616

> <Idih>
0.002

> <Tether>
0.000

$$$$
VeraChem MOL file


 13 12  0  0  0  0  0  0  0  0999 V2000     
   21.6670   19.3117   21.1660 C   0  0  0  0  0  0  0  0  0  0  0  0
   22.0777   20.4035   21.5055 O   0  5  0  0  0  0  0  0  0  0  0  0
   22.3904   18.3555   20.9698 O   0  0  0  0  0  0  0  0  0  0  0  0
   20.1673   19.1391   20.9385 C   0  0  0  0  0  0  0  0  0  0  0  0
   20.0388   18.6354   19.9730 H   0  0  0  0  0  0  0  0  0  0  0  0
   19.7100   20.1314   20.8414 H   0  0  0  0  0  0  0  0  0  0  0  0
   19.4472   18.3254   22.0443 C   0  0  0  0  0  0  0  0  0  0  0  0
   18.4151   18.1225   21.7275 H   0  0  0  0  0  0  0  0  0  0  0  0
   19.9390   17.3495   22.1619 H   0  0  0  0  0  0  0  0  0  0  0  0
   19.4228   19.0631   23.3989 C   0  0  0  0  0  0  0  0  0  0  0  0
   18.9153   20.0326   23.3087 H   0  0  0  0  0  0  0  0  0  0  0  0
   18.8897   18.4697   24.1531 H   0  0  0  0  0  0  0  0  0  0  0  0
   20.4409   19.2437   23.7685 H   0  0  0  0  0  0  0  0  0  0  0  0
  1  2  1  0  0  0  0
  1  3  2  0  0  0  0
  1  4  1  0  0  0  0
  4  5  1  0  0  0  0
  4  6  1  0  0  0  0
  4  7  1  0  0  0  0
  7  8  1  0  0  0  0
  7  9  1  0  0  0  0
  7 10  1  0  0  0  0
 10 11  1  0  0  0  0
 10 12  1  0  0  0  0
 10 13  1  0  0  0  0
M  END
> <VConfSearch Rank>
88

> <Conf_Id>
36

> <Delta U+W>
0.272

> <U+W>
-58.060

> <U>
9.781

> <W>
-67.841

> <W(PB)>
-69.537

> <W(SA)>
1.696

> <Valence>
6.123

> <Coulomb>
3.449

> <VdW>
0.209

> <VdW6>
-3.762

> <VdW12>
3.972

> <Bond>
0.078

> <Angle>
2.428

> <Pdih>
3.616

> <Idih>
0.002

> <Tether>
0.000

$$$$
VeraChem MOL file


 13 12  0  0  0  0  0  0  0  0999 V2000     
   21.0534   20.8667   21.7623 C   0  0  0  0  0  0  0  0  0  0  0  0
   21.6847   20.7957   22.7985 O   0  5  0  0  0  0  0  0  0  0  0  0
   21.1150   21.8216   21.0145 O   0  0  0  0  0  0  0  0  0  0  0  0
   20.1300   19.7173   21.3538 C   0  0  0  0  0  0  0  0  0  0  0  0
   20.4560   19.3703   20.3660 H   0  0  0  0  0  0  0  0  0  0  0  0
   19.1231   20.1336   21.2308 H   0  0  0  0  0  0  0  0  0  0  0  0
   20.0835   18.5201   22.3389 C   0  0  0  0  0  0  0  0  0  0  0  0
   21.0940   18.1061   22.4631 H   0  0  0  0  0  0  0  0  0  0  0  0
   19.7596   18.8704   23.3289 H   0  0  0  0  0  0  0  0  0  0  0  0
   19.1297   17.4134   21.8457 C   0  0  0  0  0  0  0  0  0  0  0  0
   19.4503   17.0242   20.8704 H   0  0  0  0  0  0  0  0  0  0  0  0
   19.1101   16.5757   22.5550 H   0  0  0  0  0  0  0  0  0  0  0  0
   18.1052   17.7947   21.7431 H   0  0  0  0  0  0  0  0  0  0  0  0
  1  2  1  0  0  0  0
  1  3  2  0  0  0  0
  1  4  1  0  0  0  0
  4  5  1  0  0  0  0
  4  6  1  0  0  0  0
  4  7  1  0  0  0  0
  7  8  1  0  0  0  0
  7  9  1  0  0  0  0
  7 10  1  0  0  0  0
 10 11  1  0  0  0  0
 10 12  1  0  0  0  0
 10 13  1  0  0  0  0
M  END
> <VConfSearch Rank>
89

> <Conf_Id>
0

> <Delta U+W>
0.000

> <U+W>
-58.332

> <U>
8.390

> <W>
-66.722

> <W(PB)>
-68.455

> <W(SA)>
1.733

> <Valence>
6.333

> <Coulomb>
1.215

> <VdW>
0.842

> <VdW6>
-3.344

> <VdW12>
4.186

> <Bond>
0.091

> <Angle>
2.713

> <Pdih>
3.529

> <Idih>
0.000

> <Tether>
0.000

$$$$
VeraChem MOL file


 13 12  0  0  0  0  0  0  0  0999 V2000     
   20.0676   17.9321   20.0354 C   0  0  0  0  0  0  0  0  0  0  0  0
   19.4572   18.3980   19.0942 O   0  5  0  0  0  0  0  0  0  0  0  0
   20.3294   16.7513   20.1472 O   0  0  0  0  0  0  0  0  0  0  0  0
   20.5128   18.8779   21.1457 C   0  0  0  0  0  0  0  0  0  0  0  0
   20.7327   19.8535   20.6954 H   0  0  0  0  0  0  0  0  0  0  0  0
   21.4520   18.4956   21.5637 H   0  0  0  0  0  0  0  0  0  0  0  0
   19.4561   19.0344   22.2659 C   0  0  0  0  0  0  0  0  0  0  0  0
   18.5171   19.4083   21.8342 H   0  0  0  0  0  0  0  0  0  0  0  0
   19.2365   18.0502   22.7028 H   0  0  0  0  0  0  0  0  0  0  0  0
   19.9358   19.9958   23.3718 C   0  0  0  0  0  0  0  0  0  0  0  0
   19.1739   20.0938   24.1562 H   0  0  0  0  0  0  0  0  0  0  0  0
   20.8584   19.6274   23.8394 H   0  0  0  0  0  0  0  0  0  0  0  0
   20.1333   20.9960   22.9642 H   0  0  0  0  0  0  0  0  0  0  0  0
  1  2  1  0  0  0  0
  1  3  2  0  0  0  0
  1  4  1  0  0  0  0
  4  5  1  0  0  0  0
  4  6  1  0  0  0  0
  4  7  1  0  0  0  0
  7  8  1  0  0  0  0
  7  9  1  0  0  0  0
  7 10  1  0  0  0  0
 10 11  1  0  0  0  0
 10 12  1  0  0  0  0
 10 13  1  0  0  0  0
M  END
> <VConfSearch Rank>
90

> <Conf_Id>
1

> <Delta U+W>
-1.339

> <U+W>
-59.672

> <U>
7.389

> <W>
-67.061

> <W(PB)>
-68.767

> <W(SA)>
1.707

> <Valence>
5.822

> <Coulomb>
1.255

> <VdW>
0.312

> <VdW6>
-3.061

> <VdW12>
3.372

> <Bond>
0.059

> <Angle>
2.241

> <Pdih>
3.522

> <Idih>
0.000

> <Tether>
0.000

$$$$
VeraChem MOL file


 13 12  0  0  0  0  0  0  0  0999 V2000     
   20.7015   20.0822   23.2763 C   0  0  0  0  0  0  0  0  0  0  0  0
   20.1146   21.1424   23.3640 O   0  5  0  0  0  0  0  0  0  0  0  0
   21.0721   19.4404   24.2389 O   0  0  0  0  0  0  0  0  0  0  0  0
   21.0202   19.5486   21.8819 C   0  0  0  0  0  0  0  0  0  0  0  0
   21.8047   18.7867   21.9680 H   0  0  0  0  0  0  0  0  0  0  0  0
   21.4459   20.3775   21.3039 H   0  0  0  0  0  0  0  0  0  0  0  0
   19.7950   18.9704   21.1283 C   0  0  0  0  0  0  0  0  0  0  0  0
   18.9997   19.7277   21.0838 H   0  0  0  0  0  0  0  0  0  0  0  0
   20.0811   18.7519   20.0903 H   0  0  0  0  0  0  0  0  0  0  0  0
   19.2527   17.6831   21.7831 C   0  0  0  0  0  0  0  0  0  0  0  0
   18.9151   17.8748   22.8102 H   0  0  0  0  0  0  0  0  0  0  0  0
   18.3998   17.2897   21.2148 H   0  0  0  0  0  0  0  0  0  0  0  0
   20.0260   16.9045   21.8175 H   0  0  0  0  0  0  0  0  0  0  0  0
  1  2  1  0  0  0  0
  1  3  2  0  0  0  0
  1  4  1  0  0  0  0
  4  5  1  0  0  0  0
  4  6  1  0  0  0  0
  4  7  1  0  0  0  0
  7  8  1  0  0  0  0
  7  9  1  0  0  0  0
  7 10  1  0  0  0  0
 10 11  1  0  0  0  0
 10 12  1  0  0  0  0
 10 13  1  0  0  0  0
M  END
> <VConfSearch Rank>
91

> <Conf_Id>
4

> <Delta U+W>
0.281

> <U+W>
-58.051

> <U>
9.781

> <W>
-67.832

> <W(PB)>
-69.535

> <W(SA)>
1.703

> <Valence>
6.123

> <Coulomb>
3.449

> <VdW>
0.209

> <VdW6>
-3.762

> <VdW12>
3.972

> <Bond>
0.078

> <Angle>
2.428

> <Pdih>
3.616

> <Idih>
0.002

> <Tether>
0.000

$$$$
VeraChem MOL file


 13 12  0  0  0  0  0  0  0  0999 V2000     
   18.5766   19.5788   21.3150 C   0  0  0  0  0  0  0  0  0  0  0  0
   17.7682   19.7326   22.2088 O   0  5  0  0  0  0  0  0  0  0  0  0
   18.6745   20.3290   20.3644 O   0  0  0  0  0  0  0  0  0  0  0  0
   19.4945   18.3601   21.3685 C   0  0  0  0  0  0  0  0  0  0  0  0
   19.4634   17.8838   20.3813 H   0  0  0  0  0  0  0  0  0  0  0  0
   19.0787   17.6380   22.0818 H   0  0  0  0  0  0  0  0  0  0  0  0
   20.9643   18.6883   21.7365 C   0  0  0  0  0  0  0  0  0  0  0  0
   21.5782   17.7869   21.6045 H   0  0  0  0  0  0  0  0  0  0  0  0
   21.3577   19.4430   21.0411 H   0  0  0  0  0  0  0  0  0  0  0  0
   21.1115   19.1901   23.1879 C   0  0  0  0  0  0  0  0  0  0  0  0
   20.7442   18.4408   23.9013 H   0  0  0  0  0  0  0  0  0  0  0  0
   22.1645   19.3942   23.4217 H   0  0  0  0  0  0  0  0  0  0  0  0
   20.5446   20.1175   23.3443 H   0  0  0  0  0  0  0  0  0  0  0  0
  1  2  1  0  0  0  0
  1  3  2  0  0  0  0
  1  4  1  0  0  0  0
  4  5  1  0  0  0  0
  4  6  1  0  0  0  0
  4  7  1  0  0  0  0
  7  8  1  0  0  0  0
  7  9  1  0  0  0  0
  7 10  1  0  0  0  0
 10 11  1  0  0  0  0
 10 12  1  0  0  0  0
 10 13  1  0  0  0  0
M  END
> <VConfSearch Rank>
92

> <Conf_Id>
36

> <Delta U+W>
0.272

> <U+W>
-58.060

> <U>
9.781

> <W>
-67.841

> <W(PB)>
-69.537

> <W(SA)>
1.696

> <Valence>
6.123

> <Coulomb>
3.449

> <VdW>
0.209

> <VdW6>
-3.762

> <VdW12>
3.972

> <Bond>
0.078

> <Angle>
2.428

> <Pdih>
3.616

> <Idih>
0.002

> <Tether>
0.000

$$$$
VeraChem MOL file


 13 12  0  0  0  0  0  0  0  0999 V2000     
   21.9145   19.9834   21.7658 C   0  0  0  0  0  0  0  0  0  0  0  0
   22.6551   19.0316   21.9175 O   0  5  0  0  0  0  0  0  0  0  0  0
   22.3182   21.1211   21.6340 O   0  0  0  0  0  0  0  0  0  0  0  0
   20.3996   19.7712   21.7355 C   0  0  0  0  0  0  0  0  0  0  0  0
   20.0324   20.1667   20.7810 H   0  0  0  0  0  0  0  0  0  0  0  0
   19.9657   20.3928   22.5278 H   0  0  0  0  0  0  0  0  0  0  0  0
   19.9308   18.3027   21.9076 C   0  0  0  0  0  0  0  0  0  0  0  0
   20.3690   17.6811   21.1144 H   0  0  0  0  0  0  0  0  0  0  0  0
   20.3023   17.9074   22.8633 H   0  0  0  0  0  0  0  0  0  0  0  0
   18.3937   18.1868   21.8640 C   0  0  0  0  0  0  0  0  0  0  0  0
   17.9995   18.5475   20.9048 H   0  0  0  0  0  0  0  0  0  0  0  0
   18.0813   17.1417   21.9874 H   0  0  0  0  0  0  0  0  0  0  0  0
   17.9323   18.7756   22.6678 H   0  0  0  0  0  0  0  0  0  0  0  0
  1  2  1  0  0  0  0
  1  3  2  0  0  0  0
  1  4  1  0  0  0  0
  4  5  1  0  0  0  0
  4  6  1  0  0  0  0
  4  7  1  0  0  0  0
  7  8  1  0  0  0  0
  7  9  1  0  0  0  0
  7 10  1  0  0  0  0
 10 11  1  0  0  0  0
 10 12  1  0  0  0  0
 10 13  1  0  0  0  0
M  END
> <VConfSearch Rank>
93

> <Conf_Id>
0

> <Delta U+W>
0.000

> <U+W>
-58.332

> <U>
8.390

> <W>
-66.722

> <W(PB)>
-68.455

> <W(SA)>
1.733

> <Valence>
6.333

> <Coulomb>
1.215

> <VdW>
0.842

> <VdW6>
-3.344

> <VdW12>
4.186

> <Bond>
0.091

> <Angle>
2.713

> <Pdih>
3.529

> <Idih>
0.000

> <Tether>
0.000

$$$$
VeraChem MOL file


 13 12  0  0  0  0  0  0  0  0999 V2000     
   19.2001   18.5465   23.7278 C   0  0  0  0  0  0  0  0  0  0  0  0
   19.6252   17.5277   24.2345 O   0  5  0  0  0  0  0  0  0  0  0  0
   18.1191   19.0298   23.9981 O   0  0  0  0  0  0  0  0  0  0  0  0
   20.0620   19.2461   22.6823 C   0  0  0  0  0  0  0  0  0  0  0  0
   21.1148   19.0856   22.9448 H   0  0  0  0  0  0  0  0  0  0  0  0
   19.8728   20.3244   22.7499 H   0  0  0  0  0  0  0  0  0  0  0  0
   19.7899   18.7469   21.2427 C   0  0  0  0  0  0  0  0  0  0  0  0
   19.9731   17.6645   21.1894 H   0  0  0  0  0  0  0  0  0  0  0  0
   18.7309   18.9037   20.9944 H   0  0  0  0  0  0  0  0  0  0  0  0
   20.6760   19.4728   20.2106 C   0  0  0  0  0  0  0  0  0  0  0  0
   20.4689   19.1057   19.1969 H   0  0  0  0  0  0  0  0  0  0  0  0
   20.4890   20.5546   20.2241 H   0  0  0  0  0  0  0  0  0  0  0  0
   21.7407   19.3059   20.4206 H   0  0  0  0  0  0  0  0  0  0  0  0
  1  2  1  0  0  0  0
  1  3  2  0  0  0  0
  1  4  1  0  0  0  0
  4  5  1  0  0  0  0
  4  6  1  0  0  0  0
  4  7  1  0  0  0  0
  7  8  1  0  0  0  0
  7  9  1  0  0  0  0
  7 10  1  0  0  0  0
 10 11  1  0  0  0  0
 10 12  1  0  0  0  0
 10 13  1  0  0  0  0
M  END
> <VConfSearch Rank>
94

> <Conf_Id>
1

> <Delta U+W>
-1.339

> <U+W>
-59.672

> <U>
7.389

> <W>
-67.061

> <W(PB)>
-68.767

> <W(SA)>
1.707

> <Valence>
5.822

> <Coulomb>
1.255

> <VdW>
0.312

> <VdW6>
-3.061

> <VdW12>
3.372

> <Bond>
0.059

> <Angle>
2.241

> <Pdih>
3.522

> <Idih>
0.000

> <Tether>
0.000

$$$$
VeraChem MOL file


 13 12  0  0  0  0  0  0  0  0999 V2000     
   20.8304   17.3313   21.8082 C   0  0  0  0  0  0  0  0  0  0  0  0
   21.9935   17.2105   22.1379 O   0  5  0  0  0  0  0  0  0  0  0  0
   19.9802   16.4930   22.0330 O   0  0  0  0  0  0  0  0  0  0  0  0
   20.4262   18.5870   21.0398 C   0  0  0  0  0  0  0  0  0  0  0  0
   19.4625   18.4037   20.5489 H   0  0  0  0  0  0  0  0  0  0  0  0
   21.1646   18.7345   20.2427 H   0  0  0  0  0  0  0  0  0  0  0  0
   20.3463   19.8664   21.9118 C   0  0  0  0  0  0  0  0  0  0  0  0
   21.3031   20.0178   22.4311 H   0  0  0  0  0  0  0  0  0  0  0  0
   20.2000   20.7380   21.2593 H   0  0  0  0  0  0  0  0  0  0  0  0
   19.1984   19.8088   22.9408 C   0  0  0  0  0  0  0  0  0  0  0  0
   19.3361   18.9729   23.6394 H   0  0  0  0  0  0  0  0  0  0  0  0
   19.1575   20.7361   23.5270 H   0  0  0  0  0  0  0  0  0  0  0  0
   18.2294   19.6800   22.4409 H   0  0  0  0  0  0  0  0  0  0  0  0
  1  2  1  0  0  0  0
  1  3  2  0  0  0  0
  1  4  1  0  0  0  0
  4  5  1  0  0  0  0
  4  6  1  0  0  0  0
  4  7  1  0  0  0  0
  7  8  1  0  0  0  0
  7  9  1  0  0  0  0
  7 10  1  0  0  0  0
 10 11  1  0  0  0  0
 10 12  1  0  0  0  0
 10 13  1  0  0  0  0
M  END
> <VConfSearch Rank>
95

> <Conf_Id>
4

> <Delta U+W>
0.281

> <U+W>
-58.051

> <U>
9.781

> <W>
-67.832

> <W(PB)>
-69.535

> <W(SA)>
1.703

> <Valence>
6.123

> <Coulomb>
3.449

> <VdW>
0.209

> <VdW6>
-3.762

> <VdW12>
3.972

> <Bond>
0.078

> <Angle>
2.428

> <Pdih>
3.616

> <Idih>
0.002

> <Tether>
0.000

$$$$
VeraChem MOL file


 13 12  0  0  0  0  0  0  0  0999 V2000     
   20.2897   20.2716   20.7795 C   0  0  0  0  0  0  0  0  0  0  0  0
   19.5373   21.1856   21.0521 O   0  5  0  0  0  0  0  0  0  0  0  0
   21.4057   20.4349   20.3278 O   0  0  0  0  0  0  0  0  0  0  0  0
   19.7963   18.8409   20.9805 C   0  0  0  0  0  0  0  0  0  0  0  0
   20.0247   18.2843   20.0638 H   0  0  0  0  0  0  0  0  0  0  0  0
   18.7038   18.8564   21.0778 H   0  0  0  0  0  0  0  0  0  0  0  0
   20.4302   18.1157   22.1953 C   0  0  0  0  0  0  0  0  0  0  0  0
   20.1375   17.0571   22.1754 H   0  0  0  0  0  0  0  0  0  0  0  0
   21.5255   18.1422   22.1088 H   0  0  0  0  0  0  0  0  0  0  0  0
   19.9988   18.7325   23.5420 C   0  0  0  0  0  0  0  0  0  0  0  0
   18.9077   18.6960   23.6588 H   0  0  0  0  0  0  0  0  0  0  0  0
   20.4486   18.1846   24.3802 H   0  0  0  0  0  0  0  0  0  0  0  0
   20.3152   19.7815   23.6150 H   0  0  0  0  0  0  0  0  0  0  0  0
  1  2  1  0  0  0  0
  1  3  2  0  0  0  0
  1  4  1  0  0  0  0
  4  5  1  0  0  0  0
  4  6  1  0  0  0  0
  4  7  1  0  0  0  0
  7  8  1  0  0  0  0
  7  9  1  0  0  0  0
  7 10  1  0  0  0  0
 10 11  1  0  0  0  0
 10 12  1  0  0  0  0
 10 13  1  0  0  0  0
M  END
> <VConfSearch Rank>
96

> <Conf_Id>
36

> <Delta U+W>
0.272

> <U+W>
-58.060

> <U>
9.781

> <W>
-67.841

> <W(PB)>
-69.537

> <W(SA)>
1.696

> <Valence>
6.123

> <Coulomb>
3.449

> <VdW>
0.209

> <VdW6>
-3.762

> <VdW12>
3.972

> <Bond>
0.078

> <Angle>
2.428

> <Pdih>
3.616

> <Idih>
0.002

> <Tether>
0.000

$$$$
VeraChem MOL file


 13 12  0  0  0  0  0  0  0  0999 V2000     
   20.4811   16.9867   21.2906 C   0  0  0  0  0  0  0  0  0  0  0  0
   21.4432   16.7900   22.0069 O   0  5  0  0  0  0  0  0  0  0  0  0
   20.0357   16.1461   20.5358 O   0  0  0  0  0  0  0  0  0  0  0  0
   19.7776   18.3450   21.3179 C   0  0  0  0  0  0  0  0  0  0  0  0
   18.7265   18.1646   21.5727 H   0  0  0  0  0  0  0  0  0  0  0  0
   19.7955   18.7439   20.2966 H   0  0  0  0  0  0  0  0  0  0  0  0
   20.3810   19.3864   22.2963 C   0  0  0  0  0  0  0  0  0  0  0  0
   20.3647   18.9835   23.3186 H   0  0  0  0  0  0  0  0  0  0  0  0
   21.4352   19.5636   22.0410 H   0  0  0  0  0  0  0  0  0  0  0  0
   19.6090   20.7206   22.2551 C   0  0  0  0  0  0  0  0  0  0  0  0
   18.5579   20.5752   22.5371 H   0  0  0  0  0  0  0  0  0  0  0  0
   20.0501   21.4441   22.9532 H   0  0  0  0  0  0  0  0  0  0  0  0
   19.6368   21.1599   21.2492 H   0  0  0  0  0  0  0  0  0  0  0  0
  1  2  1  0  0  0  0
  1  3  2  0  0  0  0
  1  4  1  0  0  0  0
  4  5  1  0  0  0  0
  4  6  1  0  0  0  0
  4  7  1  0  0  0  0
  7  8  1  0  0  0  0
  7  9  1  0  0  0  0
  7 10  1  0  0  0  0
 10 11  1  0  0  0  0
 10 12  1  0  0  0  0
 10 13  1  0  0  0  0
M  END
> <VConfSearch Rank>
97

> <Conf_Id>
0

> <Delta U+W>
0.000

> <U+W>
-58.332

> <U>
8.390

> <W>
-66.722

> <W(PB)>
-68.455

> <W(SA)>
1.733

> <Valence>
6.333

> <Coulomb>
1.215

> <VdW>
0.842

> <VdW6>
-3.344

> <VdW12>
4.186

> <Bond>
0.091

> <Angle>
2.713

> <Pdih>
3.529

> <Idih>
0.000

> <Tether>
0.000

$$$$
VeraChem MOL file


 13 12  0  0  0  0  0  0  0  0999 V2000     
   19.1924   17.1276   21.4207 C   0  0  0  0  0  0  0  0  0  0  0  0
   17.9903   17.0112   21.5504 O   0  5  0  0  0  0  0  0  0  0  0  0
   19.9691   16.1971   21.5001 O   0  0  0  0  0  0  0  0  0  0  0  0
   19.7586   18.5198   21.1630 C   0  0  0  0  0  0  0  0  0  0  0  0
   19.0219   19.0854   20.5795 H   0  0  0  0  0  0  0  0  0  0  0  0
   20.6537   18.4140   20.5380 H   0  0  0  0  0  0  0  0  0  0  0  0
   20.1052   19.2816   22.4651 C   0  0  0  0  0  0  0  0  0  0  0  0
   19.2038   19.3729   23.0872 H   0  0  0  0  0  0  0  0  0  0  0  0
   20.8360   18.7014   23.0457 H   0  0  0  0  0  0  0  0  0  0  0  0
   20.6745   20.6839   22.1707 C   0  0  0  0  0  0  0  0  0  0  0  0
   20.9139   21.2081   23.1052 H   0  0  0  0  0  0  0  0  0  0  0  0
   21.5940   20.6173   21.5743 H   0  0  0  0  0  0  0  0  0  0  0  0
   19.9492   21.2939   21.6162 H   0  0  0  0  0  0  0  0  0  0  0  0
  1  2  1  0  0  0  0
  1  3  2  0  0  0  0
  1  4  1  0  0  0  0
  4  5  1  0  0  0  0
  4  6  1  0  0  0  0
  4  7  1  0  0  0  0
  7  8  1  0  0  0  0
  7  9  1  0  0  0  0
  7 10  1  0  0  0  0
 10 11  1  0  0  0  0
 10 12  1  0  0  0  0
 10 13  1  0  0  0  0
M  END
> <VConfSearch Rank>
98

> <Conf_Id>
1

> <Delta U+W>
-1.339

> <U+W>
-59.672

> <U>
7.389

> <W>
-67.061

> <W(PB)>
-68.767

> <W(SA)>
1.707

> <Valence>
5.822

> <Coulomb>
1.255

> <VdW>
0.312

> <VdW6>
-3.061

> <VdW12>
3.372

> <Bond>
0.059

> <Angle>
2.241

> <Pdih>
3.522

> <Idih>
0.000

> <Tether>
0.000

$$$$
VeraChem MOL file


 13 12  0  0  0  0  0  0  0  0999 V2000     
   21.3075   19.8244   20.9582 C   0  0  0  0  0  0  0  0  0  0  0  0
   20.8428   20.4546   20.0292 O   0  5  0  0  0  0  0  0  0  0  0  0
   22.2356   20.2177   21.6363 O   0  0  0  0  0  0  0  0  0  0  0  0
   20.7155   18.4510   21.2647 C   0  0  0  0  0  0  0  0  0  0  0  0
   21.4250   17.8938   21.8888 H   0  0  0  0  0  0  0  0  0  0  0  0
   20.6366   17.9095   20.3145 H   0  0  0  0  0  0  0  0  0  0  0  0
   19.3250   18.4975   21.9486 C   0  0  0  0  0  0  0  0  0  0  0  0
   18.6335   19.0925   21.3357 H   0  0  0  0  0  0  0  0  0  0  0  0
   18.9118   17.4806   21.9936 H   0  0  0  0  0  0  0  0  0  0  0  0
   19.3883   19.0792   23.3760 C   0  0  0  0  0  0  0  0  0  0  0  0
   19.7563   20.1138   23.3647 H   0  0  0  0  0  0  0  0  0  0  0  0
   18.3925   19.0797   23.8381 H   0  0  0  0  0  0  0  0  0  0  0  0
   20.0578   18.4857   24.0124 H   0  0  0  0  0  0  0  0  0  0  0  0
  1  2  1  0  0  0  0
  1  3  2  0  0  0  0
  1  4  1  0  0  0  0
  4  5  1  0  0  0  0
  4  6  1  0  0  0  0
  4  7  1  0  0  0  0
  7  8  1  0  0  0  0
  7  9  1  0  0  0  0
  7 10  1  0  0  0  0
 10 11  1  0  0  0  0
 10 12  1  0  0  0  0
 10 13  1  0  0  0  0
M  END
> <VConfSearch Rank>
99

> <Conf_Id>
4

> <Delta U+W>
0.281

> <U+W>
-58.051

> <U>
9.781

> <W>
-67.832

> <W(PB)>
-69.535

> <W(SA)>
1.703

> <Valence>
6.123

> <Coulomb>
3.449

> <VdW>
0.209

> <VdW6>
-3.762

> <VdW12>
3.972

> <Bond>
0.078

> <Angle>
2.428

> <Pdih>
3.616

> <Idih>
0.002

> <Tether>
0.000

$$$$
VeraChem MOL file


 13 12  0  0  0  0  0  0  0  0999 V2000     
   20.7896   17.9091   20.7171 C   0  0  0  0  0  0  0  0  0  0  0  0
   21.1718   16.8667   21.2102 O   0  5  0  0  0  0  0  0  0  0  0  0
   20.2509   17.9779   19.6303 O   0  0  0  0  0  0  0  0  0  0  0  0
   21.0298   19.2063   21.4854 C   0  0  0  0  0  0  0  0  0  0  0  0
   21.4660   19.9265   20.7828 H   0  0  0  0  0  0  0  0  0  0  0  0
   21.7850   19.0218   22.2593 H   0  0  0  0  0  0  0  0  0  0  0  0
   19.7526   19.8139   22.1199 C   0  0  0  0  0  0  0  0  0  0  0  0
   19.9875   20.8106   22.5179 H   0  0  0  0  0  0  0  0  0  0  0  0
   18.9881   19.9563   21.3432 H   0  0  0  0  0  0  0  0  0  0  0  0
   19.1842   18.9389   23.2562 C   0  0  0  0  0  0  0  0  0  0  0  0
   19.9255   18.8022   24.0545 H   0  0  0  0  0  0  0  0  0  0  0  0
   18.2937   19.4064   23.6961 H   0  0  0  0  0  0  0  0  0  0  0  0
   18.8963   17.9467   22.8840 H   0  0  0  0  0  0  0  0  0  0  0  0
  1  2  1  0  0  0  0
  1  3  2  0  0  0  0
  1  4  1  0  0  0  0
  4  5  1  0  0  0  0
  4  6  1  0  0  0  0
  4  7  1  0  0  0  0
  7  8  1  0  0  0  0
  7  9  1  0  0  0  0
  7 10  1  0  0  0  0
 10 11  1  0  0  0  0
 10 12  1  0  0  0  0
 10 13  1  0  0  0  0
M  END
> <VConfSearch Rank>
100

> <Conf_Id>
36

> <Delta U+W>
0.272

> <U+W>
-58.060

> <U>
9.781

> <W>
-67.841

> <W(PB)>
-69.537

> <W(SA)>
1.696

> <Valence>
6.123

> <Coulomb>
3.449

> <VdW>
0.209

> <VdW6>
-3.762

> <VdW12>
3.972

> <Bond>
0.078

> <Angle>
2.428

> <Pdih>
3.616

> <Idih>
0.002

> <Tether>
0.000

$$$$
VeraChem MOL file


 13 12  0  0  0  0  0  0  0  0999 V2000     
   18.9527   17.8747   20.3597 C   0  0  0  0  0  0  0  0  0  0  0  0
   18.2360   17.2110   21.0830 O   0  5  0  0  0  0  0  0  0  0  0  0
   18.9313   17.7891   19.1485 O   0  0  0  0  0  0  0  0  0  0  0  0
   19.9376   18.8722   20.9727 C   0  0  0  0  0  0  0  0  0  0  0  0
   19.7076   19.8592   20.5541 H   0  0  0  0  0  0  0  0  0  0  0  0
   20.9402   18.6009   20.6213 H   0  0  0  0  0  0  0  0  0  0  0  0
   19.9296   18.9471   22.5220 C   0  0  0  0  0  0  0  0  0  0  0  0
   18.9233   19.2162   22.8723 H   0  0  0  0  0  0  0  0  0  0  0  0
   20.1573   17.9564   22.9396 H   0  0  0  0  0  0  0  0  0  0  0  0
   20.9511   19.9757   23.0477 C   0  0  0  0  0  0  0  0  0  0  0  0
   20.7265   20.9814   22.6688 H   0  0  0  0  0  0  0  0  0  0  0  0
   20.9310   20.0145   24.1447 H   0  0  0  0  0  0  0  0  0  0  0  0
   21.9704   19.7115   22.7366 H   0  0  0  0  0  0  0  0  0  0  0  0
  1  2  1  0  0  0  0
  1  3  2  0  0  0  0
  1  4  1  0  0  0  0
  4  5  1  0  0  0  0
  4  6  1  0  0  0  0
  4  7  1  0  0  0  0
  7  8  1  0  0  0  0
  7  9  1  0  0  0  0
  7 10  1  0  0  0  0
 10 11  1  0  0  0  0
 10 12  1  0  0  0  0
 10 13  1  0  0  0  0
M  END
> <VConfSearch Rank>
101

> <Conf_Id>
0

> <Delta U+W>
0.000

> <U+W>
-58.332

> <U>
8.390

> <W>
-66.722

> <W(PB)>
-68.455

> <W(SA)>
1.733

> <Valence>
6.333

> <Coulomb>
1.215

> <VdW>
0.842

> <VdW6>
-3.344

> <VdW12>
4.186

> <Bond>
0.091

> <Angle>
2.713

> <Pdih>
3.529

> <Idih>
0.000

> <Tether>
0.000

$$$$
VeraChem MOL file


 13 12  0  0  0  0  0  0  0  0999 V2000     
   20.6450   17.7308   23.3543 C   0  0  0  0  0  0  0  0  0  0  0  0
   20.9846   18.2526   24.3973 O   0  5  0  0  0  0  0  0  0  0  0  0
   21.0410   16.6423   22.9886 O   0  0  0  0  0  0  0  0  0  0  0  0
   19.6845   18.4914   22.4464 C   0  0  0  0  0  0  0  0  0  0  0  0
   19.0157   19.0870   23.0796 H   0  0  0  0  0  0  0  0  0  0  0  0
   19.0621   17.7590   21.9179 H   0  0  0  0  0  0  0  0  0  0  0  0
   20.4102   19.4058   21.4300 C   0  0  0  0  0  0  0  0  0  0  0  0
   21.0378   20.1284   21.9702 H   0  0  0  0  0  0  0  0  0  0  0  0
   21.0842   18.8002   20.8082 H   0  0  0  0  0  0  0  0  0  0  0  0
   19.4126   20.1600   20.5282 C   0  0  0  0  0  0  0  0  0  0  0  0
   19.9453   20.8025   19.8150 H   0  0  0  0  0  0  0  0  0  0  0  0
   18.7931   19.4578   19.9547 H   0  0  0  0  0  0  0  0  0  0  0  0
   18.7464   20.7963   21.1256 H   0  0  0  0  0  0  0  0  0  0  0  0
  1  2  1  0  0  0  0
  1  3  2  0  0  0  0
  1  4  1  0  0  0  0
  4  5  1  0  0  0  0
  4  6  1  0  0  0  0
  4  7  1  0  0  0  0
  7  8  1  0  0  0  0
  7  9  1  0  0  0  0
  7 10  1  0  0  0  0
 10 11  1  0  0  0  0
 10 12  1  0  0  0  0
 10 13  1  0  0  0  0
M  END
> <VConfSearch Rank>
102

> <Conf_Id>
1

> <Delta U+W>
-1.339

> <U+W>
-59.672

> <U>
7.389

> <W>
-67.061

> <W(PB)>
-68.767

> <W(SA)>
1.707

> <Valence>
5.822

> <Coulomb>
1.255

> <VdW>
0.312

> <VdW6>
-3.061

> <VdW12>
3.372

> <Bond>
0.059

> <Angle>
2.241

> <Pdih>
3.522

> <Idih>
0.000

> <Tether>
0.000

$$$$
VeraChem MOL file


 13 12  0  0  0  0  0  0  0  0999 V2000     
   18.9587   17.6225   22.1982 C   0  0  0  0  0  0  0  0  0  0  0  0
   17.8513   17.9312   22.5909 O   0  5  0  0  0  0  0  0  0  0  0  0
   19.1559   16.7813   21.3441 O   0  0  0  0  0  0  0  0  0  0  0  0
   20.1659   18.3032   22.8386 C   0  0  0  0  0  0  0  0  0  0  0  0
   21.0612   17.7076   22.6219 H   0  0  0  0  0  0  0  0  0  0  0  0
   20.0204   18.2723   23.9250 H   0  0  0  0  0  0  0  0  0  0  0  0
   20.3794   19.7713   22.3887 C   0  0  0  0  0  0  0  0  0  0  0  0
   19.4627   20.3492   22.5722 H   0  0  0  0  0  0  0  0  0  0  0  0
   21.1674   20.2255   23.0047 H   0  0  0  0  0  0  0  0  0  0  0  0
   20.7758   19.8813   20.9018 C   0  0  0  0  0  0  0  0  0  0  0  0
   19.9886   19.4758   20.2524 H   0  0  0  0  0  0  0  0  0  0  0  0
   20.9383   20.9302   20.6214 H   0  0  0  0  0  0  0  0  0  0  0  0
   21.7028   19.3285   20.7009 H   0  0  0  0  0  0  0  0  0  0  0  0
  1  2  1  0  0  0  0
  1  3  2  0  0  0  0
  1  4  1  0  0  0  0
  4  5  1  0  0  0  0
  4  6  1  0  0  0  0
  4  7  1  0  0  0  0
  7  8  1  0  0  0  0
  7  9  1  0  0  0  0
  7 10  1  0  0  0  0
 10 11  1  0  0  0  0
 10 12  1  0  0  0  0
 10 13  1  0  0  0  0
M  END
> <VConfSearch Rank>
103

> <Conf_Id>
4

> <Delta U+W>
0.281

> <U+W>
-58.051

> <U>
9.781

> <W>
-67.832

> <W(PB)>
-69.535

> <W(SA)>
1.703

> <Valence>
6.123

> <Coulomb>
3.449

> <VdW>
0.209

> <VdW6>
-3.762

> <VdW12>
3.972

> <Bond>
0.078

> <Angle>
2.428

> <Pdih>
3.616

> <Idih>
0.002

> <Tether>
0.000

$$$$
VeraChem MOL file


 13 12  0  0  0  0  0  0  0  0999 V2000     
   18.8568   20.1987   22.3251 C   0  0  0  0  0  0  0  0  0  0  0  0
   19.3298   21.0986   22.9901 O   0  5  0  0  0  0  0  0  0  0  0  0
   18.0416   20.3759   21.4418 O   0  0  0  0  0  0  0  0  0  0  0  0
   19.2803   18.7656   22.6374 C   0  0  0  0  0  0  0  0  0  0  0  0
   18.3673   18.1620   22.7044 H   0  0  0  0  0  0  0  0  0  0  0  0
   19.7469   18.7454   23.6300 H   0  0  0  0  0  0  0  0  0  0  0  0
   20.2343   18.1424   21.5863 C   0  0  0  0  0  0  0  0  0  0  0  0
   20.3645   17.0741   21.8070 H   0  0  0  0  0  0  0  0  0  0  0  0
   19.7749   18.2051   20.5898 H   0  0  0  0  0  0  0  0  0  0  0  0
   21.6175   18.8251   21.5662 C   0  0  0  0  0  0  0  0  0  0  0  0
   22.1043   18.7543   22.5478 H   0  0  0  0  0  0  0  0  0  0  0  0
   22.2736   18.3481   20.8266 H   0  0  0  0  0  0  0  0  0  0  0  0
   21.5294   19.8879   21.3045 H   0  0  0  0  0  0  0  0  0  0  0  0
  1  2  1  0  0  0  0
  1  3  2  0  0  0  0
  1  4  1  0  0  0  0
  4  5  1  0  0  0  0
  4  6  1  0  0  0  0
  4  7  1  0  0  0  0
  7  8  1  0  0  0  0
  7  9  1  0  0  0  0
  7 10  1  0  0  0  0
 10 11  1  0  0  0  0
 10 12  1  0  0  0  0
 10 13  1  0  0  0  0
M  END
> <VConfSearch Rank>
104

> <Conf_Id>
36

> <Delta U+W>
0.272

> <U+W>
-58.060

> <U>
9.781

> <W>
-67.841

> <W(PB)>
-69.537

> <W(SA)>
1.696

> <Valence>
6.123

> <Coulomb>
3.449

> <VdW>
0.209

> <VdW6>
-3.762

> <VdW12>
3.972

> <Bond>
0.078

> <Angle>
2.428

> <Pdih>
3.616

> <Idih>
0.002

> <Tether>
0.000

$$$$
VeraChem MOL file


 13 12  0  0  0  0  0  0  0  0999 V2000     
   19.7061   20.4614   20.2997 C   0  0  0  0  0  0  0  0  0  0  0  0
   20.7848   20.4260   19.7405 O   0  5  0  0  0  0  0  0  0  0  0  0
   18.8036   21.1949   19.9499 O   0  0  0  0  0  0  0  0  0  0  0  0
   19.4425   19.5530   21.5021 C   0  0  0  0  0  0  0  0  0  0  0  0
   18.5639   18.9414   21.2645 H   0  0  0  0  0  0  0  0  0  0  0  0
   19.1657   20.1972   22.3451 H   0  0  0  0  0  0  0  0  0  0  0  0
   20.6231   18.6342   21.9123 C   0  0  0  0  0  0  0  0  0  0  0  0
   20.9008   17.9915   21.0653 H   0  0  0  0  0  0  0  0  0  0  0  0
   21.5033   19.2488   22.1471 H   0  0  0  0  0  0  0  0  0  0  0  0
   20.2662   17.7577   23.1298 C   0  0  0  0  0  0  0  0  0  0  0  0
   19.4071   17.1104   22.9096 H   0  0  0  0  0  0  0  0  0  0  0  0
   21.1128   17.1152   23.4049 H   0  0  0  0  0  0  0  0  0  0  0  0
   20.0144   18.3779   24.0001 H   0  0  0  0  0  0  0  0  0  0  0  0
  1  2  1  0  0  0  0
  1  3  2  0  0  0  0
  1  4  1  0  0  0  0
  4  5  1  0  0  0  0
  4  6  1  0  0  0  0
  4  7  1  0  0  0  0
  7  8  1  0  0  0  0
  7  9  1  0  0  0  0
  7 10  1  0  0  0  0
 10 11  1  0  0  0  0
 10 12  1  0  0  0  0
 10 13  1  0  0  0  0
M  END
> <VConfSearch Rank>
105

> <Conf_Id>
0

> <Delta U+W>
0.000

> <U+W>
-58.332

> <U>
8.390

> <W>
-66.722

> <W(PB)>
-68.455

> <W(SA)>
1.733

> <Valence>
6.333

> <Coulomb>
1.215

> <VdW>
0.842

> <VdW6>
-3.344

> <VdW12>
4.186

> <Bond>
0.091

> <Angle>
2.713

> <Pdih>
3.529

> <Idih>
0.000

> <Tether>
0.000

$$$$
VeraChem MOL file


 13 12  0  0  0  0  0  0  0  0999 V2000     
   20.1355   17.9643   23.6439 C   0  0  0  0  0  0  0  0  0  0  0  0
   19.6821   16.8375   23.6339 O   0  5  0  0  0  0  0  0  0  0  0  0
   20.2540   18.6311   24.6522 O   0  0  0  0  0  0  0  0  0  0  0  0
   20.5615   18.5822   22.3163 C   0  0  0  0  0  0  0  0  0  0  0  0
   20.9326   17.7783   21.6691 H   0  0  0  0  0  0  0  0  0  0  0  0
   21.4042   19.2573   22.5088 H   0  0  0  0  0  0  0  0  0  0  0  0
   19.4159   19.3479   21.6111 C   0  0  0  0  0  0  0  0  0  0  0  0
   18.5740   18.6645   21.4325 H   0  0  0  0  0  0  0  0  0  0  0  0
   19.0458   20.1439   22.2723 H   0  0  0  0  0  0  0  0  0  0  0  0
   19.8782   19.9598   20.2735 C   0  0  0  0  0  0  0  0  0  0  0  0
   19.0531   20.4980   19.7889 H   0  0  0  0  0  0  0  0  0  0  0  0
   20.7007   20.6700   20.4299 H   0  0  0  0  0  0  0  0  0  0  0  0
   20.2253   19.1793   19.5837 H   0  0  0  0  0  0  0  0  0  0  0  0
  1  2  1  0  0  0  0
  1  3  2  0  0  0  0
  1  4  1  0  0  0  0
  4  5  1  0  0  0  0
  4  6  1  0  0  0  0
  4  7  1  0  0  0  0
  7  8  1  0  0  0  0
  7  9  1  0  0  0  0
  7 10  1  0  0  0  0
 10 11  1  0  0  0  0
 10 12  1  0  0  0  0
 10 13  1  0  0  0  0
M  END
> <VConfSearch Rank>
106

> <Conf_Id>
1

> <Delta U+W>
-1.339

> <U+W>
-59.672

> <U>
7.389

> <W>
-67.061

> <W(PB)>
-68.767

> <W(SA)>
1.707

> <Valence>
5.822

> <Coulomb>
1.255

> <VdW>
0.312

> <VdW6>
-3.061

> <VdW12>
3.372

> <Bond>
0.059

> <Angle>
2.241

> <Pdih>
3.522

> <Idih>
0.000

> <Tether>
0.000

$$$$
VeraChem MOL file


 13 12  0  0  0  0  0  0  0  0999 V2000     
   20.1213   20.4467   20.9854 C   0  0  0  0  0  0  0  0  0  0  0  0
   19.0309   20.8441   20.6261 O   0  5  0  0  0  0  0  0  0  0  0  0
   21.0197   21.1842   21.3388 O   0  0  0  0  0  0  0  0  0  0  0  0
   20.3856   18.9434   20.9562 C   0  0  0  0  0  0  0  0  0  0  0  0
   21.4691   18.7763   20.9913 H   0  0  0  0  0  0  0  0  0  0  0  0
   20.0388   18.5692   19.9856 H   0  0  0  0  0  0  0  0  0  0  0  0
   19.6866   18.1539   22.0927 C   0  0  0  0  0  0  0  0  0  0  0  0
   18.6073   18.3608   22.0742 H   0  0  0  0  0  0  0  0  0  0  0  0
   19.8048   17.0774   21.9085 H   0  0  0  0  0  0  0  0  0  0  0  0
   20.2583   18.4927   23.4849 C   0  0  0  0  0  0  0  0  0  0  0  0
   20.1169   19.5556   23.7217 H   0  0  0  0  0  0  0  0  0  0  0  0
   19.7561   17.9034   24.2632 H   0  0  0  0  0  0  0  0  0  0  0  0
   21.3328   18.2723   23.5322 H   0  0  0  0  0  0  0  0  0  0  0  0
  1  2  1  0  0  0  0
  1  3  2  0  0  0  0
  1  4  1  0  0  0  0
  4  5  1  0  0  0  0
  4  6  1  0  0  0  0
  4  7  1  0  0  0  0
  7  8  1  0  0  0  0
  7  9  1  0  0  0  0
  7 10  1  0  0  0  0
 10 11  1  0  0  0  0
 10 12  1  0  0  0  0
 10 13  1  0  0  0  0
M  END
> <VConfSearch Rank>
107

> <Conf_Id>
4

> <Delta U+W>
0.281

> <U+W>
-58.051

> <U>
9.781

> <W>
-67.832

> <W(PB)>
-69.535

> <W(SA)>
1.703

> <Valence>
6.123

> <Coulomb>
3.449

> <VdW>
0.209

> <VdW6>
-3.762

> <VdW12>
3.972

> <Bond>
0.078

> <Angle>
2.428

> <Pdih>
3.616

> <Idih>
0.002

> <Tether>
0.000

$$$$
VeraChem MOL file


 13 12  0  0  0  0  0  0  0  0999 V2000     
   19.9730   20.7502   21.8795 C   0  0  0  0  0  0  0  0  0  0  0  0
   19.1473   21.0375   21.0359 O   0  5  0  0  0  0  0  0  0  0  0  0
   20.1117   21.3657   22.9178 O   0  0  0  0  0  0  0  0  0  0  0  0
   20.9105   19.5764   21.6073 C   0  0  0  0  0  0  0  0  0  0  0  0
   21.9301   19.9144   21.8274 H   0  0  0  0  0  0  0  0  0  0  0  0
   20.8788   19.3425   20.5360 H   0  0  0  0  0  0  0  0  0  0  0  0
   20.5969   18.3072   22.4404 C   0  0  0  0  0  0  0  0  0  0  0  0
   21.4017   17.5736   22.2954 H   0  0  0  0  0  0  0  0  0  0  0  0
   20.5904   18.5616   23.5096 H   0  0  0  0  0  0  0  0  0  0  0  0
   19.2509   17.6624   22.0501 C   0  0  0  0  0  0  0  0  0  0  0  0
   19.2442   17.3799   20.9892 H   0  0  0  0  0  0  0  0  0  0  0  0
   19.0690   16.7571   22.6438 H   0  0  0  0  0  0  0  0  0  0  0  0
   18.4164   18.3545   22.2246 H   0  0  0  0  0  0  0  0  0  0  0  0
  1  2  1  0  0  0  0
  1  3  2  0  0  0  0
  1  4  1  0  0  0  0
  4  5  1  0  0  0  0
  4  6  1  0  0  0  0
  4  7  1  0  0  0  0
  7  8  1  0  0  0  0
  7  9  1  0  0  0  0
  7 10  1  0  0  0  0
 10 11  1  0  0  0  0
 10 12  1  0  0  0  0
 10 13  1  0  0  0  0
M  END
> <VConfSearch Rank>
108

> <Conf_Id>
36

> <Delta U+W>
0.272

> <U+W>
-58.060

> <U>
9.781

> <W>
-67.841

> <W(PB)>
-69.537

> <W(SA)>
1.696

> <Valence>
6.123

> <Coulomb>
3.449

> <VdW>
0.209

> <VdW6>
-3.762

> <VdW12>
3.972

> <Bond>
0.078

> <Angle>
2.428

> <Pdih>
3.616

> <Idih>
0.002

> <Tether>
0.000

$$$$
VeraChem MOL file


 13 12  0  0  0  0  0  0  0  0999 V2000     
   21.4827   19.4105   20.3215 C   0  0  0  0  0  0  0  0  0  0  0  0
   20.8824   20.2318   19.6563 O   0  5  0  0  0  0  0  0  0  0  0  0
   22.6079   19.0389   20.0557 O   0  0  0  0  0  0  0  0  0  0  0  0
   20.8174   18.7982   21.5557 C   0  0  0  0  0  0  0  0  0  0  0  0
   21.4679   19.0032   22.4143 H   0  0  0  0  0  0  0  0  0  0  0  0
   20.8052   17.7107   21.4157 H   0  0  0  0  0  0  0  0  0  0  0  0
   19.3816   19.3025   21.8557 C   0  0  0  0  0  0  0  0  0  0  0  0
   19.3956   20.3928   21.9927 H   0  0  0  0  0  0  0  0  0  0  0  0
   18.7321   19.0988   20.9929 H   0  0  0  0  0  0  0  0  0  0  0  0
   18.7938   18.6320   23.1137 C   0  0  0  0  0  0  0  0  0  0  0  0
   19.4090   18.8468   23.9974 H   0  0  0  0  0  0  0  0  0  0  0  0
   17.7785   19.0010   23.3098 H   0  0  0  0  0  0  0  0  0  0  0  0
   18.7402   17.5424   22.9896 H   0  0  0  0  0  0  0  0  0  0  0  0
  1  2  1  0  0  0  0
  1  3  2  0  0  0  0
  1  4  1  0  0  0  0
  4  5  1  0  0  0  0
  4  6  1  0  0  0  0
  4  7  1  0  0  0  0
  7  8  1  0  0  0  0
  7  9  1  0  0  0  0
  7 10  1  0  0  0  0
 10 11  1  0  0  0  0
 10 12  1  0  0  0  0
 10 13  1  0  0  0  0
M  END
> <VConfSearch Rank>
109

> <Conf_Id>
0

> <Delta U+W>
0.000

> <U+W>
-58.332

> <U>
8.390

> <W>
-66.722

> <W(PB)>
-68.455

> <W(SA)>
1.733

> <Valence>
6.333

> <Coulomb>
1.215

> <VdW>
0.842

> <VdW6>
-3.344

> <VdW12>
4.186

> <Bond>
0.091

> <Angle>
2.713

> <Pdih>
3.529

> <Idih>
0.000

> <Tether>
0.000

$$$$
VeraChem MOL file


 13 12  0  0  0  0  0  0  0  0999 V2000     
   20.9559   19.0389   23.7098 C   0  0  0  0  0  0  0  0  0  0  0  0
   20.8568   18.0182   24.3608 O   0  5  0  0  0  0  0  0  0  0  0  0
   21.1706   20.1293   24.2001 O   0  0  0  0  0  0  0  0  0  0  0  0
   20.7828   18.9495   22.1974 C   0  0  0  0  0  0  0  0  0  0  0  0
   21.1596   17.9736   21.8677 H   0  0  0  0  0  0  0  0  0  0  0  0
   21.4185   19.7145   21.7351 H   0  0  0  0  0  0  0  0  0  0  0  0
   19.3138   19.1334   21.7455 C   0  0  0  0  0  0  0  0  0  0  0  0
   18.6852   18.3683   22.2222 H   0  0  0  0  0  0  0  0  0  0  0  0
   18.9441   20.1096   22.0895 H   0  0  0  0  0  0  0  0  0  0  0  0
   19.1726   19.0377   20.2131 C   0  0  0  0  0  0  0  0  0  0  0  0
   18.1251   19.1705   19.9123 H   0  0  0  0  0  0  0  0  0  0  0  0
   19.7694   19.8127   19.7145 H   0  0  0  0  0  0  0  0  0  0  0  0
   19.5085   18.0581   19.8482 H   0  0  0  0  0  0  0  0  0  0  0  0
  1  2  1  0  0  0  0
  1  3  2  0  0  0  0
  1  4  1  0  0  0  0
  4  5  1  0  0  0  0
  4  6  1  0  0  0  0
  4  7  1  0  0  0  0
  7  8  1  0  0  0  0
  7  9  1  0  0  0  0
  7 10  1  0  0  0  0
 10 11  1  0  0  0  0
 10 12  1  0  0  0  0
 10 13  1  0  0  0  0
M  END
> <VConfSearch Rank>
110

> <Conf_Id>
1

> <Delta U+W>
-1.339

> <U+W>
-59.672

> <U>
7.389

> <W>
-67.061

> <W(PB)>
-68.767

> <W(SA)>
1.707

> <Valence>
5.822

> <Coulomb>
1.255

> <VdW>
0.312

> <VdW6>
-3.061

> <VdW12>
3.372

> <Bond>
0.059

> <Angle>
2.241

> <Pdih>
3.522

> <Idih>
0.000

> <Tether>
0.000

$$$$
VeraChem MOL file


 13 12  0  0  0  0  0  0  0  0999 V2000     
   19.9710   19.5036   23.6999 C   0  0  0  0  0  0  0  0  0  0  0  0
   18.9137   19.2539   24.2438 O   0  5  0  0  0  0  0  0  0  0  0  0
   21.0478   19.4115   24.2549 O   0  0  0  0  0  0  0  0  0  0  0  0
   19.9393   19.9928   22.2541 C   0  0  0  0  0  0  0  0  0  0  0  0
   20.9003   20.4686   22.0229 H   0  0  0  0  0  0  0  0  0  0  0  0
   19.1748   20.7763   22.1906 H   0  0  0  0  0  0  0  0  0  0  0  0
   19.6289   18.8844   21.2156 C   0  0  0  0  0  0  0  0  0  0  0  0
   18.6853   18.3868   21.4799 H   0  0  0  0  0  0  0  0  0  0  0  0
   19.4770   19.3464   20.2306 H   0  0  0  0  0  0  0  0  0  0  0  0
   20.7584   17.8386   21.1129 C   0  0  0  0  0  0  0  0  0  0  0  0
   20.9082   17.3240   22.0713 H   0  0  0  0  0  0  0  0  0  0  0  0
   20.5163   17.0808   20.3565 H   0  0  0  0  0  0  0  0  0  0  0  0
   21.7070   18.3122   20.8277 H   0  0  0  0  0  0  0  0  0  0  0  0
  1  2  1  0  0  0  0
  1  3  2  0  0  0  0
  1  4  1  0  0  0  0
  4  5  1  0  0  0  0
  4  6  1  0  0  0  0
  4  7  1  0  0  0  0
  7  8  1  0  0  0  0
  7  9  1  0  0  0  0
  7 10  1  0  0  0  0
 10 11  1  0  0  0  0
 10 12  1  0  0  0  0
 10 13  1  0  0  0  0
M  END
> <VConfSearch Rank>
111

> <Conf_Id>
4

> <Delta U+W>
0.281

> <U+W>
-58.051

> <U>
9.781

> <W>
-67.832

> <W(PB)>
-69.535

> <W(SA)>
1.703

> <Valence>
6.123

> <Coulomb>
3.449

> <VdW>
0.209

> <VdW6>
-3.762

> <VdW12>
3.972

> <Bond>
0.078

> <Angle>
2.428

> <Pdih>
3.616

> <Idih>
0.002

> <Tether>
0.000

$$$$
VeraChem MOL file


 13 12  0  0  0  0  0  0  0  0999 V2000     
   20.7509   20.1401   23.1946 C   0  0  0  0  0  0  0  0  0  0  0  0
   21.8918   19.8444   23.4895 O   0  5  0  0  0  0  0  0  0  0  0  0
   20.3659   21.2861   23.0746 O   0  0  0  0  0  0  0  0  0  0  0  0
   19.7372   19.0154   22.9992 C   0  0  0  0  0  0  0  0  0  0  0  0
   18.8414   19.2791   23.5740 H   0  0  0  0  0  0  0  0  0  0  0  0
   20.1403   18.0976   23.4445 H   0  0  0  0  0  0  0  0  0  0  0  0
   19.3454   18.7640   21.5205 C   0  0  0  0  0  0  0  0  0  0  0  0
   18.5098   18.0517   21.4856 H   0  0  0  0  0  0  0  0  0  0  0  0
   18.9818   19.6994   21.0723 H   0  0  0  0  0  0  0  0  0  0  0  0
   20.5172   18.2074   20.6857 C   0  0  0  0  0  0  0  0  0  0  0  0
   20.8818   17.2600   21.1040 H   0  0  0  0  0  0  0  0  0  0  0  0
   20.2014   18.0225   19.6507 H   0  0  0  0  0  0  0  0  0  0  0  0
   21.3562   18.9155   20.6618 H   0  0  0  0  0  0  0  0  0  0  0  0
  1  2  1  0  0  0  0
  1  3  2  0  0  0  0
  1  4  1  0  0  0  0
  4  5  1  0  0  0  0
  4  6  1  0  0  0  0
  4  7  1  0  0  0  0
  7  8  1  0  0  0  0
  7  9  1  0  0  0  0
  7 10  1  0  0  0  0
 10 11  1  0  0  0  0
 10 12  1  0  0  0  0
 10 13  1  0  0  0  0
M  END
> <VConfSearch Rank>
112

> <Conf_Id>
36

> <Delta U+W>
0.272

> <U+W>
-58.060

> <U>
9.781

> <W>
-67.841

> <W(PB)>
-69.537

> <W(SA)>
1.696

> <Valence>
6.123

> <Coulomb>
3.449

> <VdW>
0.209

> <VdW6>
-3.762

> <VdW12>
3.972

> <Bond>
0.078

> <Angle>
2.428

> <Pdih>
3.616

> <Idih>
0.002

> <Tether>
0.000

$$$$
VeraChem MOL file


 13 12  0  0  0  0  0  0  0  0999 V2000     
   20.8750   18.6672   23.7470 C   0  0  0  0  0  0  0  0  0  0  0  0
   21.6877   17.8051   23.4756 O   0  5  0  0  0  0  0  0  0  0  0  0
   20.7240   19.1038   24.8701 O   0  0  0  0  0  0  0  0  0  0  0  0
   19.9864   19.2488   22.6456 C   0  0  0  0  0  0  0  0  0  0  0  0
   20.1538   20.3323   22.6275 H   0  0  0  0  0  0  0  0  0  0  0  0
   18.9443   19.0907   22.9477 H   0  0  0  0  0  0  0  0  0  0  0  0
   20.2145   18.6612   21.2283 C   0  0  0  0  0  0  0  0  0  0  0  0
   21.2601   18.8180   20.9287 H   0  0  0  0  0  0  0  0  0  0  0  0
   20.0492   17.5749   21.2493 H   0  0  0  0  0  0  0  0  0  0  0  0
   19.2772   19.3056   20.1871 C   0  0  0  0  0  0  0  0  0  0  0  0
   19.4449   20.3889   20.1247 H   0  0  0  0  0  0  0  0  0  0  0  0
   19.4531   18.8775   19.1915 H   0  0  0  0  0  0  0  0  0  0  0  0
   18.2243   19.1358   20.4479 H   0  0  0  0  0  0  0  0  0  0  0  0
  1  2  1  0  0  0  0
  1  3  2  0  0  0  0
  1  4  1  0  0  0  0
  4  5  1  0  0  0  0
  4  6  1  0  0  0  0
  4  7  1  0  0  0  0
  7  8  1  0  0  0  0
  7  9  1  0  0  0  0
  7 10  1  0  0  0  0
 10 11  1  0  0  0  0
 10 12  1  0  0  0  0
 10 13  1  0  0  0  0
M  END
> <VConfSearch Rank>
113

> <Conf_Id>
0

> <Delta U+W>
0.000

> <U+W>
-58.332

> <U>
8.390

> <W>
-66.722

> <W(PB)>
-68.455

> <W(SA)>
1.733

> <Valence>
6.333

> <Coulomb>
1.215

> <VdW>
0.842

> <VdW6>
-3.344

> <VdW12>
4.186

> <Bond>
0.091

> <Angle>
2.713

> <Pdih>
3.529

> <Idih>
0.000

> <Tether>
0.000

$$$$
VeraChem MOL file


 13 12  0  0  0  0  0  0  0  0999 V2000     
   18.9871   17.3057   22.5024 C   0  0  0  0  0  0  0  0  0  0  0  0
   18.2380   17.4538   23.4470 O   0  5  0  0  0  0  0  0  0  0  0  0
   19.5064   16.2452   22.2176 O   0  0  0  0  0  0  0  0  0  0  0  0
   19.3078   18.5209   21.6387 C   0  0  0  0  0  0  0  0  0  0  0  0
   18.4254   19.1721   21.6244 H   0  0  0  0  0  0  0  0  0  0  0  0
   19.4713   18.1754   20.6106 H   0  0  0  0  0  0  0  0  0  0  0  0
   20.5430   19.3085   22.1387 C   0  0  0  0  0  0  0  0  0  0  0  0
   20.3720   19.6408   23.1722 H   0  0  0  0  0  0  0  0  0  0  0  0
   21.4181   18.6440   22.1580 H   0  0  0  0  0  0  0  0  0  0  0  0
   20.8404   20.5294   21.2453 C   0  0  0  0  0  0  0  0  0  0  0  0
   21.7186   21.0746   21.6154 H   0  0  0  0  0  0  0  0  0  0  0  0
   21.0444   20.2197   20.2119 H   0  0  0  0  0  0  0  0  0  0  0  0
   19.9902   21.2241   21.2339 H   0  0  0  0  0  0  0  0  0  0  0  0
  1  2  1  0  0  0  0
  1  3  2  0  0  0  0
  1  4  1  0  0  0  0
  4  5  1  0  0  0  0
  4  6  1  0  0  0  0
  4  7  1  0  0  0  0
  7  8  1  0  0  0  0
  7  9  1  0  0  0  0
  7 10  1  0  0  0  0
 10 11  1  0  0  0  0
 10 12  1  0  0  0  0
 10 13  1  0  0  0  0
M  END
> <VConfSearch Rank>
114

> <Conf_Id>
1

> <Delta U+W>
-1.339

> <U+W>
-59.672

> <U>
7.389

> <W>
-67.061

> <W(PB)>
-68.767

> <W(SA)>
1.707

> <Valence>
5.822

> <Coulomb>
1.255

> <VdW>
0.312

> <VdW6>
-3.061

> <VdW12>
3.372

> <Bond>
0.059

> <Angle>
2.241

> <Pdih>
3.522

> <Idih>
0.000

> <Tether>
0.000

$$$$
VeraChem MOL file


 13 12  0  0  0  0  0  0  0  0999 V2000     
   19.2422   18.0512   20.7357 C   0  0  0  0  0  0  0  0  0  0  0  0
   18.2462   17.4610   21.1042 O   0  5  0  0  0  0  0  0  0  0  0  0
   19.3176   18.6405   19.6760 O   0  0  0  0  0  0  0  0  0  0  0  0
   20.4737   18.0186   21.6373 C   0  0  0  0  0  0  0  0  0  0  0  0
   21.3514   18.3028   21.0438 H   0  0  0  0  0  0  0  0  0  0  0  0
   20.6247   16.9777   21.9472 H   0  0  0  0  0  0  0  0  0  0  0  0
   20.3644   18.9200   22.8938 C   0  0  0  0  0  0  0  0  0  0  0  0
   19.4599   18.6547   23.4591 H   0  0  0  0  0  0  0  0  0  0  0  0
   21.2191   18.7214   23.5547 H   0  0  0  0  0  0  0  0  0  0  0  0
   20.3374   20.4219   22.5425 C   0  0  0  0  0  0  0  0  0  0  0  0
   19.4682   20.6654   21.9171 H   0  0  0  0  0  0  0  0  0  0  0  0
   20.2796   21.0314   23.4537 H   0  0  0  0  0  0  0  0  0  0  0  0
   21.2438   20.7134   21.9958 H   0  0  0  0  0  0  0  0  0  0  0  0
  1  2  1  0  0  0  0
  1  3  2  0  0  0  0
  1  4  1  0  0  0  0
  4  5  1  0  0  0  0
  4  6  1  0  0  0  0
  4  7  1  0  0  0  0
  7  8  1  0  0  0  0
  7  9  1  0  0  0  0
  7 10  1  0  0  0  0
 10 11  1  0  0  0  0
 10 12  1  0  0  0  0
 10 13  1  0  0  0  0
M  END
> <VConfSearch Rank>
115

> <Conf_Id>
4

> <Delta U+W>
0.281

> <U+W>
-58.051

> <U>
9.781

> <W>
-67.832

> <W(PB)>
-69.535

> <W(SA)>
1.703

> <Valence>
6.123

> <Coulomb>
3.449

> <VdW>
0.209

> <VdW6>
-3.762

> <VdW12>
3.972

> <Bond>
0.078

> <Angle>
2.428

> <Pdih>
3.616

> <Idih>
0.002

> <Tether>
0.000

$$$$
VeraChem MOL file


 13 12  0  0  0  0  0  0  0  0999 V2000     
   19.3506   18.2496   20.5450 C   0  0  0  0  0  0  0  0  0  0  0  0
   19.7882   17.1307   20.3649 O   0  5  0  0  0  0  0  0  0  0  0  0
   18.1913   18.5550   20.3478 O   0  0  0  0  0  0  0  0  0  0  0  0
   20.3136   19.3394   21.0093 C   0  0  0  0  0  0  0  0  0  0  0  0
   20.1545   20.2125   20.3652 H   0  0  0  0  0  0  0  0  0  0  0  0
   21.3413   18.9988   20.8329 H   0  0  0  0  0  0  0  0  0  0  0  0
   20.1356   19.7538   22.4925 C   0  0  0  0  0  0  0  0  0  0  0  0
   20.7567   20.6367   22.6966 H   0  0  0  0  0  0  0  0  0  0  0  0
   19.0930   20.0537   22.6680 H   0  0  0  0  0  0  0  0  0  0  0  0
   20.5252   18.6267   23.4712 C   0  0  0  0  0  0  0  0  0  0  0  0
   21.5716   18.3267   23.3278 H   0  0  0  0  0  0  0  0  0  0  0  0
   20.4066   18.9588   24.5108 H   0  0  0  0  0  0  0  0  0  0  0  0
   19.8928   17.7409   23.3250 H   0  0  0  0  0  0  0  0  0  0  0  0
  1  2  1  0  0  0  0
  1  3  2  0  0  0  0
  1  4  1  0  0  0  0
  4  5  1  0  0  0  0
  4  6  1  0  0  0  0
  4  7  1  0  0  0  0
  7  8  1  0  0  0  0
  7  9  1  0  0  0  0
  7 10  1  0  0  0  0
 10 11  1  0  0  0  0
 10 12  1  0  0  0  0
 10 13  1  0  0  0  0
M  END
> <VConfSearch Rank>
116

> <Conf_Id>
36

> <Delta U+W>
0.272

> <U+W>
-58.060

> <U>
9.781

> <W>
-67.841

> <W(PB)>
-69.537

> <W(SA)>
1.696

> <Valence>
6.123

> <Coulomb>
3.449

> <VdW>
0.209

> <VdW6>
-3.762

> <VdW12>
3.972

> <Bond>
0.078

> <Angle>
2.428

> <Pdih>
3.616

> <Idih>
0.002

> <Tether>
0.000

$$$$
VeraChem MOL file


 13 12  0  0  0  0  0  0  0  0999 V2000     
   18.7635   20.7154   21.9690 C   0  0  0  0  0  0  0  0  0  0  0  0
   19.4023   21.5086   21.3056 O   0  5  0  0  0  0  0  0  0  0  0  0
   17.7090   20.9967   22.5016 O   0  0  0  0  0  0  0  0  0  0  0  0
   19.2851   19.2900   22.1606 C   0  0  0  0  0  0  0  0  0  0  0  0
   18.5114   18.6056   21.7928 H   0  0  0  0  0  0  0  0  0  0  0  0
   19.3786   19.1175   23.2394 H   0  0  0  0  0  0  0  0  0  0  0  0
   20.6344   18.9767   21.4625 C   0  0  0  0  0  0  0  0  0  0  0  0
   20.5394   19.1530   20.3820 H   0  0  0  0  0  0  0  0  0  0  0  0
   21.4077   19.6656   21.8303 H   0  0  0  0  0  0  0  0  0  0  0  0
   21.0796   17.5214   21.7107 C   0  0  0  0  0  0  0  0  0  0  0  0
   20.3366   16.8118   21.3235 H   0  0  0  0  0  0  0  0  0  0  0  0
   22.0351   17.3187   21.2096 H   0  0  0  0  0  0  0  0  0  0  0  0
   21.2119   17.3285   22.7835 H   0  0  0  0  0  0  0  0  0  0  0  0
  1  2  1  0  0  0  0
  1  3  2  0  0  0  0
  1  4  1  0  0  0  0
  4  5  1  0  0  0  0
  4  6  1  0  0  0  0
  4  7  1  0  0  0  0
  7  8  1  0  0  0  0
  7  9  1  0  0  0  0
  7 10  1  0  0  0  0
 10 11  1  0  0  0  0
 10 12  1  0  0  0  0
 10 13  1  0  0  0  0
M  END
> <VConfSearch Rank>
117

> <Conf_Id>
0

> <Delta U+W>
0.000

> <U+W>
-58.332

> <U>
8.390

> <W>
-66.722

> <W(PB)>
-68.455

> <W(SA)>
1.733

> <Valence>
6.333

> <Coulomb>
1.215

> <VdW>
0.842

> <VdW6>
-3.344

> <VdW12>
4.186

> <Bond>
0.091

> <Angle>
2.713

> <Pdih>
3.529

> <Idih>
0.000

> <Tether>
0.000

$$$$
VeraChem MOL file


 13 12  0  0  0  0  0  0  0  0999 V2000     
   21.8127   18.1000   22.3351 C   0  0  0  0  0  0  0  0  0  0  0  0
   22.8186   18.6119   21.8863 O   0  5  0  0  0  0  0  0  0  0  0  0
   21.7402   16.9303   22.6545 O   0  0  0  0  0  0  0  0  0  0  0  0
   20.5683   18.9681   22.4883 C   0  0  0  0  0  0  0  0  0  0  0  0
   20.8915   19.9901   22.7205 H   0  0  0  0  0  0  0  0  0  0  0  0
   20.0022   18.6035   23.3541 H   0  0  0  0  0  0  0  0  0  0  0  0
   19.6717   18.9667   21.2266 C   0  0  0  0  0  0  0  0  0  0  0  0
   20.2518   19.3242   20.3643 H   0  0  0  0  0  0  0  0  0  0  0  0
   19.3622   17.9372   20.9981 H   0  0  0  0  0  0  0  0  0  0  0  0
   18.4236   19.8526   21.4133 C   0  0  0  0  0  0  0  0  0  0  0  0
   17.8009   19.8389   20.5092 H   0  0  0  0  0  0  0  0  0  0  0  0
   17.8112   19.4966   22.2522 H   0  0  0  0  0  0  0  0  0  0  0  0
   18.7076   20.8941   21.6136 H   0  0  0  0  0  0  0  0  0  0  0  0
  1  2  1  0  0  0  0
  1  3  2  0  0  0  0
  1  4  1  0  0  0  0
  4  5  1  0  0  0  0
  4  6  1  0  0  0  0
  4  7  1  0  0  0  0
  7  8  1  0  0  0  0
  7  9  1  0  0  0  0
  7 10  1  0  0  0  0
 10 11  1  0  0  0  0
 10 12  1  0  0  0  0
 10 13  1  0  0  0  0
M  END
> <VConfSearch Rank>
118

> <Conf_Id>
1

> <Delta U+W>
-1.339

> <U+W>
-59.672

> <U>
7.389

> <W>
-67.061

> <W(PB)>
-68.767

> <W(SA)>
1.707

> <Valence>
5.822

> <Coulomb>
1.255

> <VdW>
0.312

> <VdW6>
-3.061

> <VdW12>
3.372

> <Bond>
0.059

> <Angle>
2.241

> <Pdih>
3.522

> <Idih>
0.000

> <Tether>
0.000

$$$$
VeraChem MOL file


 13 12  0  0  0  0  0  0  0  0999 V2000     
   20.4241   18.4325   20.3132 C   0  0  0  0  0  0  0  0  0  0  0  0
   20.1099   17.2879   20.0537 O   0  5  0  0  0  0  0  0  0  0  0  0
   20.2492   19.3637   19.5528 O   0  0  0  0  0  0  0  0  0  0  0  0
   21.1069   18.7064   21.6510 C   0  0  0  0  0  0  0  0  0  0  0  0
   21.6029   19.6833   21.5989 H   0  0  0  0  0  0  0  0  0  0  0  0
   21.8971   17.9562   21.7744 H   0  0  0  0  0  0  0  0  0  0  0  0
   20.1532   18.6563   22.8722 C   0  0  0  0  0  0  0  0  0  0  0  0
   19.6308   17.6895   22.8915 H   0  0  0  0  0  0  0  0  0  0  0  0
   20.7468   18.7127   23.7949 H   0  0  0  0  0  0  0  0  0  0  0  0
   19.1233   19.8049   22.8645 C   0  0  0  0  0  0  0  0  0  0  0  0
   18.4813   19.7533   21.9751 H   0  0  0  0  0  0  0  0  0  0  0  0
   18.4779   19.7516   23.7509 H   0  0  0  0  0  0  0  0  0  0  0  0
   19.6247   20.7816   22.8676 H   0  0  0  0  0  0  0  0  0  0  0  0
  1  2  1  0  0  0  0
  1  3  2  0  0  0  0
  1  4  1  0  0  0  0
  4  5  1  0  0  0  0
  4  6  1  0  0  0  0
  4  7  1  0  0  0  0
  7  8  1  0  0  0  0
  7  9  1  0  0  0  0
  7 10  1  0  0  0  0
 10 11  1  0  0  0  0
 10 12  1  0  0  0  0
 10 13  1  0  0  0  0
M  END
> <VConfSearch Rank>
119

> <Conf_Id>
4

> <Delta U+W>
0.281

> <U+W>
-58.051

> <U>
9.781

> <W>
-67.832

> <W(PB)>
-69.535

> <W(SA)>
1.703

> <Valence>
6.123

> <Coulomb>
3.449

> <VdW>
0.209

> <VdW6>
-3.762

> <VdW12>
3.972

> <Bond>
0.078

> <Angle>
2.428

> <Pdih>
3.616

> <Idih>
0.002

> <Tether>
0.000

$$$$
VeraChem MOL file


 13 12  0  0  0  0  0  0  0  0999 V2000     
   21.3363   19.8856   21.0575 C   0  0  0  0  0  0  0  0  0  0  0  0
   20.7963   20.4400   20.1210 O   0  5  0  0  0  0  0  0  0  0  0  0
   22.2401   20.3828   21.6994 O   0  0  0  0  0  0  0  0  0  0  0  0
   20.8815   18.4758   21.4266 C   0  0  0  0  0  0  0  0  0  0  0  0
   21.7820   17.8598   21.5364 H   0  0  0  0  0  0  0  0  0  0  0  0
   20.3129   18.0586   20.5864 H   0  0  0  0  0  0  0  0  0  0  0  0
   20.0432   18.3999   22.7285 C   0  0  0  0  0  0  0  0  0  0  0  0
   19.8898   17.3457   22.9969 H   0  0  0  0  0  0  0  0  0  0  0  0
   20.6050   18.8575   23.5549 H   0  0  0  0  0  0  0  0  0  0  0  0
   18.6701   19.0888   22.5876 C   0  0  0  0  0  0  0  0  0  0  0  0
   18.0825   18.6315   21.7807 H   0  0  0  0  0  0  0  0  0  0  0  0
   18.0953   18.9999   23.5186 H   0  0  0  0  0  0  0  0  0  0  0  0
   18.7859   20.1573   22.3624 H   0  0  0  0  0  0  0  0  0  0  0  0
  1  2  1  0  0  0  0
  1  3  2  0  0  0  0
  1  4  1  0  0  0  0
  4  5  1  0  0  0  0
  4  6  1  0  0  0  0
  4  7  1  0  0  0  0
  7  8  1  0  0  0  0
  7  9  1  0  0  0  0
  7 10  1  0  0  0  0
 10 11  1  0  0  0  0
 10 12  1  0  0  0  0
 10 13  1  0  0  0  0
M  END
> <VConfSearch Rank>
120

> <Conf_Id>
36

> <Delta U+W>
0.272

> <U+W>
-58.060

> <U>
9.781

> <W>
-67.841

> <W(PB)>
-69.537

> <W(SA)>
1.696

> <Valence>
6.123

> <Coulomb>
3.449

> <VdW>
0.209

> <VdW6>
-3.762

> <VdW12>
3.972

> <Bond>
0.078

> <Angle>
2.428

> <Pdih>
3.616

> <Idih>
0.002

> <Tether>
0.000

$$$$
VeraChem MOL file


 13 12  0  0  0  0  0  0  0  0999 V2000     
   22.1430   19.1983   21.7078 C   0  0  0  0  0  0  0  0  0  0  0  0
   22.2701   19.4766   20.5315 O   0  5  0  0  0  0  0  0  0  0  0  0
   23.0836   19.1006   22.4697 O   0  0  0  0  0  0  0  0  0  0  0  0
   20.7474   18.9536   22.2851 C   0  0  0  0  0  0  0  0  0  0  0  0
   20.6060   19.6605   23.1113 H   0  0  0  0  0  0  0  0  0  0  0  0
   20.7447   17.9473   22.7206 H   0  0  0  0  0  0  0  0  0  0  0  0
   19.5776   19.0891   21.2756 C   0  0  0  0  0  0  0  0  0  0  0  0
   19.5839   20.0973   20.8382 H   0  0  0  0  0  0  0  0  0  0  0  0
   19.7228   18.3820   20.4469 H   0  0  0  0  0  0  0  0  0  0  0  0
   18.2139   18.8258   21.9455 C   0  0  0  0  0  0  0  0  0  0  0  0
   18.0310   19.5407   22.7585 H   0  0  0  0  0  0  0  0  0  0  0  0
   17.3993   18.9261   21.2164 H   0  0  0  0  0  0  0  0  0  0  0  0
   18.1710   17.8117   22.3641 H   0  0  0  0  0  0  0  0  0  0  0  0
  1  2  1  0  0  0  0
  1  3  2  0  0  0  0
  1  4  1  0  0  0  0
  4  5  1  0  0  0  0
  4  6  1  0  0  0  0
  4  7  1  0  0  0  0
  7  8  1  0  0  0  0
  7  9  1  0  0  0  0
  7 10  1  0  0  0  0
 10 11  1  0  0  0  0
 10 12  1  0  0  0  0
 10 13  1  0  0  0  0
M  END
> <VConfSearch Rank>
121

> <Conf_Id>
0

> <Delta U+W>
0.000

> <U+W>
-58.332

> <U>
8.390

> <W>
-66.722

> <W(PB)>
-68.455

> <W(SA)>
1.733

> <Valence>
6.333

> <Coulomb>
1.215

> <VdW>
0.842

> <VdW6>
-3.344

> <VdW12>
4.186

> <Bond>
0.091

> <Angle>
2.713

> <Pdih>
3.529

> <Idih>
0.000

> <Tether>
0.000

$$$$
VeraChem MOL file


 13 12  0  0  0  0  0  0  0  0999 V2000     
   18.6090   19.3846   20.2714 C   0  0  0  0  0  0  0  0  0  0  0  0
   18.5279   18.5140   19.4282 O   0  5  0  0  0  0  0  0  0  0  0  0
   18.3111   20.5446   20.0689 O   0  0  0  0  0  0  0  0  0  0  0  0
   19.1306   19.0043   21.6530 C   0  0  0  0  0  0  0  0  0  0  0  0
   18.8185   17.9742   21.8641 H   0  0  0  0  0  0  0  0  0  0  0  0
   18.6397   19.6488   22.3925 H   0  0  0  0  0  0  0  0  0  0  0  0
   20.6685   19.1304   21.7739 C   0  0  0  0  0  0  0  0  0  0  0  0
   21.1491   18.4885   21.0224 H   0  0  0  0  0  0  0  0  0  0  0  0
   20.9702   20.1634   21.5509 H   0  0  0  0  0  0  0  0  0  0  0  0
   21.1636   18.7393   23.1808 C   0  0  0  0  0  0  0  0  0  0  0  0
   22.2553   18.8350   23.2470 H   0  0  0  0  0  0  0  0  0  0  0  0
   20.7194   19.3873   23.9478 H   0  0  0  0  0  0  0  0  0  0  0  0
   20.8997   17.6996   23.4151 H   0  0  0  0  0  0  0  0  0  0  0  0
  1  2  1  0  0  0  0
  1  3  2  0  0  0  0
  1  4  1  0  0  0  0
  4  5  1  0  0  0  0
  4  6  1  0  0  0  0
  4  7  1  0  0  0  0
  7  8  1  0  0  0  0
  7  9  1  0  0  0  0
  7 10  1  0  0  0  0
 10 11  1  0  0  0  0
 10 12  1  0  0  0  0
 10 13  1  0  0  0  0
M  END
> <VConfSearch Rank>
122

> <Conf_Id>
1

> <Delta U+W>
-1.339

> <U+W>
-59.672

> <U>
7.389

> <W>
-67.061

> <W(PB)>
-68.767

> <W(SA)>
1.707

> <Valence>
5.822

> <Coulomb>
1.255

> <VdW>
0.312

> <VdW6>
-3.061

> <VdW12>
3.372

> <Bond>
0.059

> <Angle>
2.241

> <Pdih>
3.522

> <Idih>
0.000

> <Tether>
0.000

$$$$
VeraChem MOL file


 13 12  0  0  0  0  0  0  0  0999 V2000     
   18.7185   19.7480   21.2077 C   0  0  0  0  0  0  0  0  0  0  0  0
   18.9756   20.6106   20.3916 O   0  5  0  0  0  0  0  0  0  0  0  0
   17.8289   18.9334   21.0633 O   0  0  0  0  0  0  0  0  0  0  0  0
   19.5344   19.7106   22.4975 C   0  0  0  0  0  0  0  0  0  0  0  0
   18.9907   19.1139   23.2402 H   0  0  0  0  0  0  0  0  0  0  0  0
   19.5793   20.7351   22.8859 H   0  0  0  0  0  0  0  0  0  0  0  0
   20.9738   19.1623   22.3222 C   0  0  0  0  0  0  0  0  0  0  0  0
   21.4958   19.7406   21.5470 H   0  0  0  0  0  0  0  0  0  0  0  0
   21.5320   19.3112   23.2567 H   0  0  0  0  0  0  0  0  0  0  0  0
   20.9942   17.6636   21.9566 C   0  0  0  0  0  0  0  0  0  0  0  0
   20.4819   17.4832   21.0023 H   0  0  0  0  0  0  0  0  0  0  0  0
   22.0265   17.3031   21.8595 H   0  0  0  0  0  0  0  0  0  0  0  0
   20.4965   17.0642   22.7301 H   0  0  0  0  0  0  0  0  0  0  0  0
  1  2  1  0  0  0  0
  1  3  2  0  0  0  0
  1  4  1  0  0  0  0
  4  5  1  0  0  0  0
  4  6  1  0  0  0  0
  4  7  1  0  0  0  0
  7  8  1  0  0  0  0
  7  9  1  0  0  0  0
  7 10  1  0  0  0  0
 10 11  1  0  0  0  0
 10 12  1  0  0  0  0
 10 13  1  0  0  0  0
M  END
> <VConfSearch Rank>
123

> <Conf_Id>
4

> <Delta U+W>
0.281

> <U+W>
-58.051

> <U>
9.781

> <W>
-67.832

> <W(PB)>
-69.535

> <W(SA)>
1.703

> <Valence>
6.123

> <Coulomb>
3.449

> <VdW>
0.209

> <VdW6>
-3.762

> <VdW12>
3.972

> <Bond>
0.078

> <Angle>
2.428

> <Pdih>
3.616

> <Idih>
0.002

> <Tether>
0.000

$$$$
VeraChem MOL file


 13 12  0  0  0  0  0  0  0  0999 V2000     
   21.7272   18.2475   22.3111 C   0  0  0  0  0  0  0  0  0  0  0  0
   22.5025   19.1173   22.6550 O   0  5  0  0  0  0  0  0  0  0  0  0
   21.7276   17.1266   22.7799 O   0  0  0  0  0  0  0  0  0  0  0  0
   20.7223   18.5662   21.2069 C   0  0  0  0  0  0  0  0  0  0  0  0
   20.7644   17.7464   20.4799 H   0  0  0  0  0  0  0  0  0  0  0  0
   21.0516   19.4717   20.6826 H   0  0  0  0  0  0  0  0  0  0  0  0
   19.2647   18.7385   21.7058 C   0  0  0  0  0  0  0  0  0  0  0  0
   18.5940   18.8134   20.8389 H   0  0  0  0  0  0  0  0  0  0  0  0
   18.9591   17.8430   22.2650 H   0  0  0  0  0  0  0  0  0  0  0  0
   19.0873   19.9903   22.5897 C   0  0  0  0  0  0  0  0  0  0  0  0
   19.3663   20.9001   22.0421 H   0  0  0  0  0  0  0  0  0  0  0  0
   18.0421   20.0934   22.9092 H   0  0  0  0  0  0  0  0  0  0  0  0
   19.7118   19.9290   23.4908 H   0  0  0  0  0  0  0  0  0  0  0  0
  1  2  1  0  0  0  0
  1  3  2  0  0  0  0
  1  4  1  0  0  0  0
  4  5  1  0  0  0  0
  4  6  1  0  0  0  0
  4  7  1  0  0  0  0
  7  8  1  0  0  0  0
  7  9  1  0  0  0  0
  7 10  1  0  0  0  0
 10 11  1  0  0  0  0
 10 12  1  0  0  0  0
 10 13  1  0  0  0  0
M  END
> <VConfSearch Rank>
124

> <Conf_Id>
36

> <Delta U+W>
0.272

> <U+W>
-58.060

> <U>
9.781

> <W>
-67.841

> <W(PB)>
-69.537

> <W(SA)>
1.696

> <Valence>
6.123

> <Coulomb>
3.449

> <VdW>
0.209

> <VdW6>
-3.762

> <VdW12>
3.972

> <Bond>
0.078

> <Angle>
2.428

> <Pdih>
3.616

> <Idih>
0.002

> <Tether>
0.000

$$$$
VeraChem MOL file


 13 12  0  0  0  0  0  0  0  0999 V2000     
   18.5822   20.4942   22.3130 C   0  0  0  0  0  0  0  0  0  0  0  0
   18.7106   20.5262   23.5213 O   0  5  0  0  0  0  0  0  0  0  0  0
   17.7939   21.1965   21.7129 O   0  0  0  0  0  0  0  0  0  0  0  0
   19.4378   19.5359   21.4823 C   0  0  0  0  0  0  0  0  0  0  0  0
   19.9894   20.1390   20.7512 H   0  0  0  0  0  0  0  0  0  0  0  0
   18.7537   18.8928   20.9159 H   0  0  0  0  0  0  0  0  0  0  0  0
   20.4296   18.6594   22.2910 C   0  0  0  0  0  0  0  0  0  0  0  0
   21.1124   19.3058   22.8601 H   0  0  0  0  0  0  0  0  0  0  0  0
   19.8752   18.0581   23.0251 H   0  0  0  0  0  0  0  0  0  0  0  0
   21.2463   17.7281   21.3726 C   0  0  0  0  0  0  0  0  0  0  0  0
   21.8344   18.3073   20.6486 H   0  0  0  0  0  0  0  0  0  0  0  0
   21.9416   17.1165   21.9622 H   0  0  0  0  0  0  0  0  0  0  0  0
   20.5873   17.0497   20.8149 H   0  0  0  0  0  0  0  0  0  0  0  0
  1  2  1  0  0  0  0
  1  3  2  0  0  0  0
  1  4  1  0  0  0  0
  4  5  1  0  0  0  0
  4  6  1  0  0  0  0
  4  7  1  0  0  0  0
  7  8  1  0  0  0  0
  7  9  1  0  0  0  0
  7 10  1  0  0  0  0
 10 11  1  0  0  0  0
 10 12  1  0  0  0  0
 10 13  1  0  0  0  0
M  END
> <VConfSearch Rank>
125

> <Conf_Id>
0

> <Delta U+W>
0.000

> <U+W>
-58.332

> <U>
8.390

> <W>
-66.722

> <W(PB)>
-68.455

> <W(SA)>
1.733

> <Valence>
6.333

> <Coulomb>
1.215

> <VdW>
0.842

> <VdW6>
-3.344

> <VdW12>
4.186

> <Bond>
0.091

> <Angle>
2.713

> <Pdih>
3.529

> <Idih>
0.000

> <Tether>
0.000

$$$$
VeraChem MOL file


 13 12  0  0  0  0  0  0  0  0999 V2000     
   20.6177   18.0634   20.0677 C   0  0  0  0  0  0  0  0  0  0  0  0
   21.5969   17.3522   20.1709 O   0  5  0  0  0  0  0  0  0  0  0  0
   20.2637   18.5703   19.0222 O   0  0  0  0  0  0  0  0  0  0  0  0
   19.7993   18.3505   21.3221 C   0  0  0  0  0  0  0  0  0  0  0  0
   19.8501   17.4686   21.9722 H   0  0  0  0  0  0  0  0  0  0  0  0
   18.7506   18.4731   21.0249 H   0  0  0  0  0  0  0  0  0  0  0  0
   20.2862   19.6049   22.0870 C   0  0  0  0  0  0  0  0  0  0  0  0
   21.3399   19.4751   22.3708 H   0  0  0  0  0  0  0  0  0  0  0  0
   20.2401   20.4797   21.4234 H   0  0  0  0  0  0  0  0  0  0  0  0
   19.4394   19.8677   23.3485 C   0  0  0  0  0  0  0  0  0  0  0  0
   19.7994   20.7601   23.8770 H   0  0  0  0  0  0  0  0  0  0  0  0
   18.3855   20.0305   23.0873 H   0  0  0  0  0  0  0  0  0  0  0  0
   19.4938   19.0181   24.0420 H   0  0  0  0  0  0  0  0  0  0  0  0
  1  2  1  0  0  0  0
  1  3  2  0  0  0  0
  1  4  1  0  0  0  0
  4  5  1  0  0  0  0
  4  6  1  0  0  0  0
  4  7  1  0  0  0  0
  7  8  1  0  0  0  0
  7  9  1  0  0  0  0
  7 10  1  0  0  0  0
 10 11  1  0  0  0  0
 10 12  1  0  0  0  0
 10 13  1  0  0  0  0
M  END
> <VConfSearch Rank>
126

> <Conf_Id>
1

> <Delta U+W>
-1.339

> <U+W>
-59.672

> <U>
7.389

> <W>
-67.061

> <W(PB)>
-68.767

> <W(SA)>
1.707

> <Valence>
5.822

> <Coulomb>
1.255

> <VdW>
0.312

> <VdW6>
-3.061

> <VdW12>
3.372

> <Bond>
0.059

> <Angle>
2.241

> <Pdih>
3.522

> <Idih>
0.000

> <Tether>
0.000

$$$$
VeraChem MOL file


 13 12  0  0  0  0  0  0  0  0999 V2000     
   19.8972   17.2089   22.2526 C   0  0  0  0  0  0  0  0  0  0  0  0
   20.7448   16.6531   22.9226 O   0  5  0  0  0  0  0  0  0  0  0  0
   18.7109   16.9593   22.3320 O   0  0  0  0  0  0  0  0  0  0  0  0
   20.3532   18.2495   21.2329 C   0  0  0  0  0  0  0  0  0  0  0  0
   19.5434   18.4127   20.5112 H   0  0  0  0  0  0  0  0  0  0  0  0
   21.1916   17.8154   20.6752 H   0  0  0  0  0  0  0  0  0  0  0  0
   20.7926   19.5991   21.8565 C   0  0  0  0  0  0  0  0  0  0  0  0
   21.5748   19.4199   22.6075 H   0  0  0  0  0  0  0  0  0  0  0  0
   21.2429   20.2269   21.0755 H   0  0  0  0  0  0  0  0  0  0  0  0
   19.6168   20.3623   22.5008 C   0  0  0  0  0  0  0  0  0  0  0  0
   19.1695   19.7811   23.3181 H   0  0  0  0  0  0  0  0  0  0  0  0
   19.9578   21.3203   22.9145 H   0  0  0  0  0  0  0  0  0  0  0  0
   18.8326   20.5715   21.7615 H   0  0  0  0  0  0  0  0  0  0  0  0
  1  2  1  0  0  0  0
  1  3  2  0  0  0  0
  1  4  1  0  0  0  0
  4  5  1  0  0  0  0
  4  6  1  0  0  0  0
  4  7  1  0  0  0  0
  7  8  1  0  0  0  0
  7  9  1  0  0  0  0
  7 10  1  0  0  0  0
 10 11  1  0  0  0  0
 10 12  1  0  0  0  0
 10 13  1  0  0  0  0
M  END
> <VConfSearch Rank>
127

> <Conf_Id>
4

> <Delta U+W>
0.281

> <U+W>
-58.051

> <U>
9.781

> <W>
-67.832

> <W(PB)>
-69.535

> <W(SA)>
1.703

> <Valence>
6.123

> <Coulomb>
3.449

> <VdW>
0.209

> <VdW6>
-3.762

> <VdW12>
3.972

> <Bond>
0.078

> <Angle>
2.428

> <Pdih>
3.616

> <Idih>
0.002

> <Tether>
0.000

$$$$
VeraChem MOL file


 13 12  0  0  0  0  0  0  0  0999 V2000     
   21.1986   18.9761   23.4253 C   0  0  0  0  0  0  0  0  0  0  0  0
   21.8713   17.9644   23.4327 O   0  5  0  0  0  0  0  0  0  0  0  0
   21.6195   20.0626   23.7692 O   0  0  0  0  0  0  0  0  0  0  0  0
   19.7372   18.8727   22.9958 C   0  0  0  0  0  0  0  0  0  0  0  0
   19.1374   19.3991   23.7478 H   0  0  0  0  0  0  0  0  0  0  0  0
   19.4345   17.8189   23.0302 H   0  0  0  0  0  0  0  0  0  0  0  0
   19.4441   19.4670   21.5943 C   0  0  0  0  0  0  0  0  0  0  0  0
   18.3578   19.4877   21.4322 H   0  0  0  0  0  0  0  0  0  0  0  0
   19.7888   20.5099   21.5577 H   0  0  0  0  0  0  0  0  0  0  0  0
   20.1075   18.6589   20.4599 C   0  0  0  0  0  0  0  0  0  0  0  0
   19.7595   17.6176   20.4645 H   0  0  0  0  0  0  0  0  0  0  0  0
   19.8644   19.0939   19.4818 H   0  0  0  0  0  0  0  0  0  0  0  0
   21.2005   18.6543   20.5657 H   0  0  0  0  0  0  0  0  0  0  0  0
  1  2  1  0  0  0  0
  1  3  2  0  0  0  0
  1  4  1  0  0  0  0
  4  5  1  0  0  0  0
  4  6  1  0  0  0  0
  4  7  1  0  0  0  0
  7  8  1  0  0  0  0
  7  9  1  0  0  0  0
  7 10  1  0  0  0  0
 10 11  1  0  0  0  0
 10 12  1  0  0  0  0
 10 13  1  0  0  0  0
M  END
> <VConfSearch Rank>
128

> <Conf_Id>
36

> <Delta U+W>
0.272

> <U+W>
-58.060

> <U>
9.781

> <W>
-67.841

> <W(PB)>
-69.537

> <W(SA)>
1.696

> <Valence>
6.123

> <Coulomb>
3.449

> <VdW>
0.209

> <VdW6>
-3.762

> <VdW12>
3.972

> <Bond>
0.078

> <Angle>
2.428

> <Pdih>
3.616

> <Idih>
0.002

> <Tether>
0.000

$$$$
VeraChem MOL file


 13 12  0  0  0  0  0  0  0  0999 V2000     
   19.7235   19.7409   19.8434 C   0  0  0  0  0  0  0  0  0  0  0  0
   20.7268   19.3190   19.3023 O   0  5  0  0  0  0  0  0  0  0  0  0
   18.8818   20.3933   19.2597 O   0  0  0  0  0  0  0  0  0  0  0  0
   19.4813   19.4544   21.3266 C   0  0  0  0  0  0  0  0  0  0  0  0
   18.5173   18.9382   21.4075 H   0  0  0  0  0  0  0  0  0  0  0  0
   19.3708   20.4205   21.8333 H   0  0  0  0  0  0  0  0  0  0  0  0
   20.5822   18.6183   22.0302 C   0  0  0  0  0  0  0  0  0  0  0  0
   20.6934   17.6518   21.5192 H   0  0  0  0  0  0  0  0  0  0  0  0
   21.5480   19.1359   21.9454 H   0  0  0  0  0  0  0  0  0  0  0  0
   20.2532   18.3805   23.5179 C   0  0  0  0  0  0  0  0  0  0  0  0
   19.3060   17.8364   23.6287 H   0  0  0  0  0  0  0  0  0  0  0  0
   21.0427   17.7880   23.9984 H   0  0  0  0  0  0  0  0  0  0  0  0
   20.1674   19.3324   24.0583 H   0  0  0  0  0  0  0  0  0  0  0  0
  1  2  1  0  0  0  0
  1  3  2  0  0  0  0
  1  4  1  0  0  0  0
  4  5  1  0  0  0  0
  4  6  1  0  0  0  0
  4  7  1  0  0  0  0
  7  8  1  0  0  0  0
  7  9  1  0  0  0  0
  7 10  1  0  0  0  0
 10 11  1  0  0  0  0
 10 12  1  0  0  0  0
 10 13  1  0  0  0  0
M  END
> <VConfSearch Rank>
129

> <Conf_Id>
0

> <Delta U+W>
0.000

> <U+W>
-58.332

> <U>
8.390

> <W>
-66.722

> <W(PB)>
-68.455

> <W(SA)>
1.733

> <Valence>
6.333

> <Coulomb>
1.215

> <VdW>
0.842

> <VdW6>
-3.344

> <VdW12>
4.186

> <Bond>
0.091

> <Angle>
2.713

> <Pdih>
3.529

> <Idih>
0.000

> <Tether>
0.000

$$$$
VeraChem MOL file


 13 12  0  0  0  0  0  0  0  0999 V2000     
   21.4018   17.7644   20.9158 C   0  0  0  0  0  0  0  0  0  0  0  0
   21.3913   17.7412   19.7014 O   0  5  0  0  0  0  0  0  0  0  0  0
   21.8218   16.8534   21.6007 O   0  0  0  0  0  0  0  0  0  0  0  0
   20.8400   18.9956   21.6187 C   0  0  0  0  0  0  0  0  0  0  0  0
   21.0402   19.8700   20.9876 H   0  0  0  0  0  0  0  0  0  0  0  0
   21.3952   19.1379   22.5538 H   0  0  0  0  0  0  0  0  0  0  0  0
   19.3240   18.8854   21.9108 C   0  0  0  0  0  0  0  0  0  0  0  0
   18.7793   18.7332   20.9685 H   0  0  0  0  0  0  0  0  0  0  0  0
   19.1344   18.0011   22.5352 H   0  0  0  0  0  0  0  0  0  0  0  0
   18.7874   20.1444   22.6209 C   0  0  0  0  0  0  0  0  0  0  0  0
   17.7120   20.0476   22.8194 H   0  0  0  0  0  0  0  0  0  0  0  0
   19.2966   20.3011   23.5809 H   0  0  0  0  0  0  0  0  0  0  0  0
   18.9387   21.0388   22.0022 H   0  0  0  0  0  0  0  0  0  0  0  0
  1  2  1  0  0  0  0
  1  3  2  0  0  0  0
  1  4  1  0  0  0  0
  4  5  1  0  0  0  0
  4  6  1  0  0  0  0
  4  7  1  0  0  0  0
  7  8  1  0  0  0  0
  7  9  1  0  0  0  0
  7 10  1  0  0  0  0
 10 11  1  0  0  0  0
 10 12  1  0  0  0  0
 10 13  1  0  0  0  0
M  END
> <VConfSearch Rank>
130

> <Conf_Id>
1

> <Delta U+W>
-1.339

> <U+W>
-59.672

> <U>
7.389

> <W>
-67.061

> <W(PB)>
-68.767

> <W(SA)>
1.707

> <Valence>
5.822

> <Coulomb>
1.255

> <VdW>
0.312

> <VdW6>
-3.061

> <VdW12>
3.372

> <Bond>
0.059

> <Angle>
2.241

> <Pdih>
3.522

> <Idih>
0.000

> <Tether>
0.000

$$$$
VeraChem MOL file


 13 12  0  0  0  0  0  0  0  0999 V2000     
   20.2381   18.9114   23.7844 C   0  0  0  0  0  0  0  0  0  0  0  0
   20.7736   17.9272   24.2542 O   0  5  0  0  0  0  0  0  0  0  0  0
   20.4028   20.0343   24.2177 O   0  0  0  0  0  0  0  0  0  0  0  0
   19.2807   18.7194   22.6108 C   0  0  0  0  0  0  0  0  0  0  0  0
   18.6544   19.6152   22.5181 H   0  0  0  0  0  0  0  0  0  0  0  0
   18.6110   17.8900   22.8674 H   0  0  0  0  0  0  0  0  0  0  0  0
   19.9827   18.4169   21.2621 C   0  0  0  0  0  0  0  0  0  0  0  0
   20.6391   17.5429   21.3771 H   0  0  0  0  0  0  0  0  0  0  0  0
   19.2246   18.1460   20.5146 H   0  0  0  0  0  0  0  0  0  0  0  0
   20.7995   19.6168   20.7395 C   0  0  0  0  0  0  0  0  0  0  0  0
   21.5975   19.8876   21.4435 H   0  0  0  0  0  0  0  0  0  0  0  0
   21.2665   19.3764   19.7755 H   0  0  0  0  0  0  0  0  0  0  0  0
   20.1576   20.4959   20.5962 H   0  0  0  0  0  0  0  0  0  0  0  0
  1  2  1  0  0  0  0
  1  3  2  0  0  0  0
  1  4  1  0  0  0  0
  4  5  1  0  0  0  0
  4  6  1  0  0  0  0
  4  7  1  0  0  0  0
  7  8  1  0  0  0  0
  7  9  1  0  0  0  0
  7 10  1  0  0  0  0
 10 11  1  0  0  0  0
 10 12  1  0  0  0  0
 10 13  1  0  0  0  0
M  END
> <VConfSearch Rank>
131

> <Conf_Id>
4

> <Delta U+W>
0.281

> <U+W>
-58.051

> <U>
9.781

> <W>
-67.832

> <W(PB)>
-69.535

> <W(SA)>
1.703

> <Valence>
6.123

> <Coulomb>
3.449

> <VdW>
0.209

> <VdW6>
-3.762

> <VdW12>
3.972

> <Bond>
0.078

> <Angle>
2.428

> <Pdih>
3.616

> <Idih>
0.002

> <Tether>
0.000

$$$$
VeraChem MOL file


 13 12  0  0  0  0  0  0  0  0999 V2000     
   20.0713   20.3827   23.0954 C   0  0  0  0  0  0  0  0  0  0  0  0
   18.9699   20.4708   23.6004 O   0  5  0  0  0  0  0  0  0  0  0  0
   21.1019   20.6303   23.6891 O   0  0  0  0  0  0  0  0  0  0  0  0
   20.1659   19.9743   21.6274 C   0  0  0  0  0  0  0  0  0  0  0  0
   20.8410   20.6834   21.1336 H   0  0  0  0  0  0  0  0  0  0  0  0
   19.1800   20.1000   21.1633 H   0  0  0  0  0  0  0  0  0  0  0  0
   20.6815   18.5297   21.4026 C   0  0  0  0  0  0  0  0  0  0  0  0
   20.8608   18.3744   20.3299 H   0  0  0  0  0  0  0  0  0  0  0  0
   21.6500   18.4023   21.9063 H   0  0  0  0  0  0  0  0  0  0  0  0
   19.6877   17.4630   21.9069 C   0  0  0  0  0  0  0  0  0  0  0  0
   18.7188   17.5583   21.3995 H   0  0  0  0  0  0  0  0  0  0  0  0
   20.0736   16.4533   21.7151 H   0  0  0  0  0  0  0  0  0  0  0  0
   19.5185   17.5607   22.9875 H   0  0  0  0  0  0  0  0  0  0  0  0
  1  2  1  0  0  0  0
  1  3  2  0  0  0  0
  1  4  1  0  0  0  0
  4  5  1  0  0  0  0
  4  6  1  0  0  0  0
  4  7  1  0  0  0  0
  7  8  1  0  0  0  0
  7  9  1  0  0  0  0
  7 10  1  0  0  0  0
 10 11  1  0  0  0  0
 10 12  1  0  0  0  0
 10 13  1  0  0  0  0
M  END
> <VConfSearch Rank>
132

> <Conf_Id>
36

> <Delta U+W>
0.272

> <U+W>
-58.060

> <U>
9.781

> <W>
-67.841

> <W(PB)>
-69.537

> <W(SA)>
1.696

> <Valence>
6.123

> <Coulomb>
3.449

> <VdW>
0.209

> <VdW6>
-3.762

> <VdW12>
3.972

> <Bond>
0.078

> <Angle>
2.428

> <Pdih>
3.616

> <Idih>
0.002

> <Tether>
0.000

$$$$
VeraChem MOL file


 13 12  0  0  0  0  0  0  0  0999 V2000     
   18.8308   17.4711   20.9335 C   0  0  0  0  0  0  0  0  0  0  0  0
   19.4575   17.2772   19.9103 O   0  5  0  0  0  0  0  0  0  0  0  0
   17.8171   16.8637   21.2134 O   0  0  0  0  0  0  0  0  0  0  0  0
   19.3150   18.5219   21.9346 C   0  0  0  0  0  0  0  0  0  0  0  0
   19.4622   18.0154   22.8959 H   0  0  0  0  0  0  0  0  0  0  0  0
   18.5000   19.2421   22.0736 H   0  0  0  0  0  0  0  0  0  0  0  0
   20.6126   19.2719   21.5352 C   0  0  0  0  0  0  0  0  0  0  0  0
   21.4273   18.5481   21.3935 H   0  0  0  0  0  0  0  0  0  0  0  0
   20.4640   19.7763   20.5702 H   0  0  0  0  0  0  0  0  0  0  0  0
   21.0225   20.3080   22.6012 C   0  0  0  0  0  0  0  0  0  0  0  0
   21.2074   19.8239   23.5691 H   0  0  0  0  0  0  0  0  0  0  0  0
   21.9417   20.8281   22.3013 H   0  0  0  0  0  0  0  0  0  0  0  0
   20.2363   21.0619   22.7392 H   0  0  0  0  0  0  0  0  0  0  0  0
  1  2  1  0  0  0  0
  1  3  2  0  0  0  0
  1  4  1  0  0  0  0
  4  5  1  0  0  0  0
  4  6  1  0  0  0  0
  4  7  1  0  0  0  0
  7  8  1  0  0  0  0
  7  9  1  0  0  0  0
  7 10  1  0  0  0  0
 10 11  1  0  0  0  0
 10 12  1  0  0  0  0
 10 13  1  0  0  0  0
M  END
> <VConfSearch Rank>
133

> <Conf_Id>
0

> <Delta U+W>
0.000

> <U+W>
-58.332

> <U>
8.390

> <W>
-66.722

> <W(PB)>
-68.455

> <W(SA)>
1.733

> <Valence>
6.333

> <Coulomb>
1.215

> <VdW>
0.842

> <VdW6>
-3.344

> <VdW12>
4.186

> <Bond>
0.091

> <Angle>
2.713

> <Pdih>
3.529

> <Idih>
0.000

> <Tether>
0.000

$$$$
VeraChem MOL file


 13 12  0  0  0  0  0  0  0  0999 V2000     
   18.5661   17.6773   21.0712 C   0  0  0  0  0  0  0  0  0  0  0  0
   17.5913   17.4790   21.7682 O   0  5  0  0  0  0  0  0  0  0  0  0
   18.9739   16.8843   20.2465 O   0  0  0  0  0  0  0  0  0  0  0  0
   19.3302   18.9842   21.2546 C   0  0  0  0  0  0  0  0  0  0  0  0
   18.6118   19.7628   21.5388 H   0  0  0  0  0  0  0  0  0  0  0  0
   19.7519   19.2723   20.2840 H   0  0  0  0  0  0  0  0  0  0  0  0
   20.4536   18.8836   22.3147 C   0  0  0  0  0  0  0  0  0  0  0  0
   20.0211   18.5850   23.2798 H   0  0  0  0  0  0  0  0  0  0  0  0
   21.1615   18.0945   22.0247 H   0  0  0  0  0  0  0  0  0  0  0  0
   21.2061   20.2196   22.4764 C   0  0  0  0  0  0  0  0  0  0  0  0
   21.9980   20.1285   23.2313 H   0  0  0  0  0  0  0  0  0  0  0  0
   21.6731   20.5244   21.5305 H   0  0  0  0  0  0  0  0  0  0  0  0
   20.5239   21.0186   22.7953 H   0  0  0  0  0  0  0  0  0  0  0  0
  1  2  1  0  0  0  0
  1  3  2  0  0  0  0
  1  4  1  0  0  0  0
  4  5  1  0  0  0  0
  4  6  1  0  0  0  0
  4  7  1  0  0  0  0
  7  8  1  0  0  0  0
  7  9  1  0  0  0  0
  7 10  1  0  0  0  0
 10 11  1  0  0  0  0
 10 12  1  0  0  0  0
 10 13  1  0  0  0  0
M  END
> <VConfSearch Rank>
134

> <Conf_Id>
1

> <Delta U+W>
-1.339

> <U+W>
-59.672

> <U>
7.389

> <W>
-67.061

> <W(PB)>
-68.767

> <W(SA)>
1.707

> <Valence>
5.822

> <Coulomb>
1.255

> <VdW>
0.312

> <VdW6>
-3.061

> <VdW12>
3.372

> <Bond>
0.059

> <Angle>
2.241

> <Pdih>
3.522

> <Idih>
0.000

> <Tether>
0.000

$$$$
VeraChem MOL file


 13 12  0  0  0  0  0  0  0  0999 V2000     
   18.7023   17.9189   21.7038 C   0  0  0  0  0  0  0  0  0  0  0  0
   18.6788   16.8689   22.3146 O   0  5  0  0  0  0  0  0  0  0  0  0
   17.7192   18.6084   21.5195 O   0  0  0  0  0  0  0  0  0  0  0  0
   20.0312   18.3755   21.1070 C   0  0  0  0  0  0  0  0  0  0  0  0
   19.8303   19.1355   20.3420 H   0  0  0  0  0  0  0  0  0  0  0  0
   20.4706   17.5142   20.5898 H   0  0  0  0  0  0  0  0  0  0  0  0
   21.0409   18.9210   22.1493 C   0  0  0  0  0  0  0  0  0  0  0  0
   21.2034   18.1679   22.9330 H   0  0  0  0  0  0  0  0  0  0  0  0
   22.0113   19.0821   21.6602 H   0  0  0  0  0  0  0  0  0  0  0  0
   20.5727   20.2449   22.7880 C   0  0  0  0  0  0  0  0  0  0  0  0
   19.6243   20.1104   23.3250 H   0  0  0  0  0  0  0  0  0  0  0  0
   21.3178   20.6133   23.5051 H   0  0  0  0  0  0  0  0  0  0  0  0
   20.4254   21.0190   22.0235 H   0  0  0  0  0  0  0  0  0  0  0  0
  1  2  1  0  0  0  0
  1  3  2  0  0  0  0
  1  4  1  0  0  0  0
  4  5  1  0  0  0  0
  4  6  1  0  0  0  0
  4  7  1  0  0  0  0
  7  8  1  0  0  0  0
  7  9  1  0  0  0  0
  7 10  1  0  0  0  0
 10 11  1  0  0  0  0
 10 12  1  0  0  0  0
 10 13  1  0  0  0  0
M  END
> <VConfSearch Rank>
135

> <Conf_Id>
4

> <Delta U+W>
0.281

> <U+W>
-58.051

> <U>
9.781

> <W>
-67.832

> <W(PB)>
-69.535

> <W(SA)>
1.703

> <Valence>
6.123

> <Coulomb>
3.449

> <VdW>
0.209

> <VdW6>
-3.762

> <VdW12>
3.972

> <Bond>
0.078

> <Angle>
2.428

> <Pdih>
3.616

> <Idih>
0.002

> <Tether>
0.000

$$$$
VeraChem MOL file


 13 12  0  0  0  0  0  0  0  0999 V2000     
   19.3796   18.2609   23.4688 C   0  0  0  0  0  0  0  0  0  0  0  0
   20.2350   17.6987   24.1231 O   0  5  0  0  0  0  0  0  0  0  0  0
   18.4651   18.8905   23.9622 O   0  0  0  0  0  0  0  0  0  0  0  0
   19.4340   18.1417   21.9478 C   0  0  0  0  0  0  0  0  0  0  0  0
   18.4288   17.8685   21.6051 H   0  0  0  0  0  0  0  0  0  0  0  0
   20.0961   17.3078   21.6841 H   0  0  0  0  0  0  0  0  0  0  0  0
   19.8910   19.4352   21.2258 C   0  0  0  0  0  0  0  0  0  0  0  0
   19.7566   19.3095   20.1427 H   0  0  0  0  0  0  0  0  0  0  0  0
   19.2469   20.2726   21.5288 H   0  0  0  0  0  0  0  0  0  0  0  0
   21.3664   19.7821   21.5135 C   0  0  0  0  0  0  0  0  0  0  0  0
   22.0301   18.9667   21.1974 H   0  0  0  0  0  0  0  0  0  0  0  0
   21.6628   20.6903   20.9727 H   0  0  0  0  0  0  0  0  0  0  0  0
   21.5286   19.9586   22.5851 H   0  0  0  0  0  0  0  0  0  0  0  0
  1  2  1  0  0  0  0
  1  3  2  0  0  0  0
  1  4  1  0  0  0  0
  4  5  1  0  0  0  0
  4  6  1  0  0  0  0
  4  7  1  0  0  0  0
  7  8  1  0  0  0  0
  7  9  1  0  0  0  0
  7 10  1  0  0  0  0
 10 11  1  0  0  0  0
 10 12  1  0  0  0  0
 10 13  1  0  0  0  0
M  END
> <VConfSearch Rank>
136

> <Conf_Id>
36

> <Delta U+W>
0.272

> <U+W>
-58.060

> <U>
9.781

> <W>
-67.841

> <W(PB)>
-69.537

> <W(SA)>
1.696

> <Valence>
6.123

> <Coulomb>
3.449

> <VdW>
0.209

> <VdW6>
-3.762

> <VdW12>
3.972

> <Bond>
0.078

> <Angle>
2.428

> <Pdih>
3.616

> <Idih>
0.002

> <Tether>
0.000

$$$$
VeraChem MOL file


 13 12  0  0  0  0  0  0  0  0999 V2000     
   18.6001   17.6548   20.9767 C   0  0  0  0  0  0  0  0  0  0  0  0
   17.5858   18.3146   21.0921 O   0  5  0  0  0  0  0  0  0  0  0  0
   18.6141   16.5435   20.4872 O   0  0  0  0  0  0  0  0  0  0  0  0
   19.9358   18.2223   21.4610 C   0  0  0  0  0  0  0  0  0  0  0  0
   20.6211   18.2233   20.6050 H   0  0  0  0  0  0  0  0  0  0  0  0
   20.3434   17.5186   22.1966 H   0  0  0  0  0  0  0  0  0  0  0  0
   19.8692   19.6436   22.0786 C   0  0  0  0  0  0  0  0  0  0  0  0
   19.4578   20.3465   21.3408 H   0  0  0  0  0  0  0  0  0  0  0  0
   19.1797   19.6410   22.9344 H   0  0  0  0  0  0  0  0  0  0  0  0
   21.2585   20.1310   22.5369 C   0  0  0  0  0  0  0  0  0  0  0  0
   21.9588   20.1721   21.6923 H   0  0  0  0  0  0  0  0  0  0  0  0
   21.1913   21.1373   22.9707 H   0  0  0  0  0  0  0  0  0  0  0  0
   21.6785   19.4609   23.2986 H   0  0  0  0  0  0  0  0  0  0  0  0
  1  2  1  0  0  0  0
  1  3  2  0  0  0  0
  1  4  1  0  0  0  0
  4  5  1  0  0  0  0
  4  6  1  0  0  0  0
  4  7  1  0  0  0  0
  7  8  1  0  0  0  0
  7  9  1  0  0  0  0
  7 10  1  0  0  0  0
 10 11  1  0  0  0  0
 10 12  1  0  0  0  0
 10 13  1  0  0  0  0
M  END
> <VConfSearch Rank>
137

> <Conf_Id>
0

> <Delta U+W>
0.000

> <U+W>
-58.332

> <U>
8.390

> <W>
-66.722

> <W(PB)>
-68.455

> <W(SA)>
1.733

> <Valence>
6.333

> <Coulomb>
1.215

> <VdW>
0.842

> <VdW6>
-3.344

> <VdW12>
4.186

> <Bond>
0.091

> <Angle>
2.713

> <Pdih>
3.529

> <Idih>
0.000

> <Tether>
0.000

$$$$
VeraChem MOL file


 13 12  0  0  0  0  0  0  0  0999 V2000     
   21.7095   20.2448   21.6106 C   0  0  0  0  0  0  0  0  0  0  0  0
   22.0369   20.8919   22.5850 O   0  5  0  0  0  0  0  0  0  0  0  0
   22.0050   20.5495   20.4725 O   0  0  0  0  0  0  0  0  0  0  0  0
   20.8662   18.9927   21.8263 C   0  0  0  0  0  0  0  0  0  0  0  0
   21.1526   18.5496   22.7879 H   0  0  0  0  0  0  0  0  0  0  0  0
   21.1263   18.2672   21.0459 H   0  0  0  0  0  0  0  0  0  0  0  0
   19.3450   19.2774   21.8031 C   0  0  0  0  0  0  0  0  0  0  0  0
   19.0978   20.0123   22.5820 H   0  0  0  0  0  0  0  0  0  0  0  0
   19.0714   19.7297   20.8396 H   0  0  0  0  0  0  0  0  0  0  0  0
   18.5212   17.9929   22.0239 C   0  0  0  0  0  0  0  0  0  0  0  0
   17.4461   18.2148   22.0041 H   0  0  0  0  0  0  0  0  0  0  0  0
   18.7291   17.2533   21.2395 H   0  0  0  0  0  0  0  0  0  0  0  0
   18.7556   17.5380   22.9953 H   0  0  0  0  0  0  0  0  0  0  0  0
  1  2  1  0  0  0  0
  1  3  2  0  0  0  0
  1  4  1  0  0  0  0
  4  5  1  0  0  0  0
  4  6  1  0  0  0  0
  4  7  1  0  0  0  0
  7  8  1  0  0  0  0
  7  9  1  0  0  0  0
  7 10  1  0  0  0  0
 10 11  1  0  0  0  0
 10 12  1  0  0  0  0
 10 13  1  0  0  0  0
M  END
> <VConfSearch Rank>
138

> <Conf_Id>
1

> <Delta U+W>
-1.339

> <U+W>
-59.672

> <U>
7.389

> <W>
-67.061

> <W(PB)>
-68.767

> <W(SA)>
1.707

> <Valence>
5.822

> <Coulomb>
1.255

> <VdW>
0.312

> <VdW6>
-3.061

> <VdW12>
3.372

> <Bond>
0.059

> <Angle>
2.241

> <Pdih>
3.522

> <Idih>
0.000

> <Tether>
0.000

$$$$
VeraChem MOL file


 13 12  0  0  0  0  0  0  0  0999 V2000     
   18.8108   18.8718   23.2110 C   0  0  0  0  0  0  0  0  0  0  0  0
   17.8683   19.6184   23.0366 O   0  5  0  0  0  0  0  0  0  0  0  0
   18.6946   17.7254   23.5958 O   0  0  0  0  0  0  0  0  0  0  0  0
   20.2160   19.4167   22.9674 C   0  0  0  0  0  0  0  0  0  0  0  0
   20.9393   18.7571   23.4623 H   0  0  0  0  0  0  0  0  0  0  0  0
   20.2807   20.3900   23.4684 H   0  0  0  0  0  0  0  0  0  0  0  0
   20.5817   19.5823   21.4700 C   0  0  0  0  0  0  0  0  0  0  0  0
   19.8283   20.2108   20.9748 H   0  0  0  0  0  0  0  0  0  0  0  0
   21.5391   20.1152   21.3902 H   0  0  0  0  0  0  0  0  0  0  0  0
   20.6953   18.2296   20.7370 C   0  0  0  0  0  0  0  0  0  0  0  0
   19.7405   17.6876   20.7586 H   0  0  0  0  0  0  0  0  0  0  0  0
   20.9742   18.3814   19.6861 H   0  0  0  0  0  0  0  0  0  0  0  0
   21.4595   17.5938   21.2028 H   0  0  0  0  0  0  0  0  0  0  0  0
  1  2  1  0  0  0  0
  1  3  2  0  0  0  0
  1  4  1  0  0  0  0
  4  5  1  0  0  0  0
  4  6  1  0  0  0  0
  4  7  1  0  0  0  0
  7  8  1  0  0  0  0
  7  9  1  0  0  0  0
  7 10  1  0  0  0  0
 10 11  1  0  0  0  0
 10 12  1  0  0  0  0
 10 13  1  0  0  0  0
M  END
> <VConfSearch Rank>
139

> <Conf_Id>
4

> <Delta U+W>
0.281

> <U+W>
-58.051

> <U>
9.781

> <W>
-67.832

> <W(PB)>
-69.535

> <W(SA)>
1.703

> <Valence>
6.123

> <Coulomb>
3.449

> <VdW>
0.209

> <VdW6>
-3.762

> <VdW12>
3.972

> <Bond>
0.078

> <Angle>
2.428

> <Pdih>
3.616

> <Idih>
0.002

> <Tether>
0.000

$$$$
VeraChem MOL file


 13 12  0  0  0  0  0  0  0  0999 V2000     
   21.5050   19.9255   22.6028 C   0  0  0  0  0  0  0  0  0  0  0  0
   21.1556   20.5892   23.5585 O   0  5  0  0  0  0  0  0  0  0  0  0
   22.5955   19.3967   22.5174 O   0  0  0  0  0  0  0  0  0  0  0  0
   20.5383   19.7764   21.4306 C   0  0  0  0  0  0  0  0  0  0  0  0
   21.1005   19.9905   20.5138 H   0  0  0  0  0  0  0  0  0  0  0  0
   19.7629   20.5478   21.5141 H   0  0  0  0  0  0  0  0  0  0  0  0
   19.8866   18.3741   21.3199 C   0  0  0  0  0  0  0  0  0  0  0  0
   19.3312   18.3089   20.3743 H   0  0  0  0  0  0  0  0  0  0  0  0
   20.6716   17.6060   21.2785 H   0  0  0  0  0  0  0  0  0  0  0  0
   18.9265   18.0753   22.4899 C   0  0  0  0  0  0  0  0  0  0  0  0
   18.1205   18.8194   22.5359 H   0  0  0  0  0  0  0  0  0  0  0  0
   18.4681   17.0850   22.3709 H   0  0  0  0  0  0  0  0  0  0  0  0
   19.4587   18.0883   23.4503 H   0  0  0  0  0  0  0  0  0  0  0  0
  1  2  1  0  0  0  0
  1  3  2  0  0  0  0
  1  4  1  0  0  0  0
  4  5  1  0  0  0  0
  4  6  1  0  0  0  0
  4  7  1  0  0  0  0
  7  8  1  0  0  0  0
  7  9  1  0  0  0  0
  7 10  1  0  0  0  0
 10 11  1  0  0  0  0
 10 12  1  0  0  0  0
 10 13  1  0  0  0  0
M  END
> <VConfSearch Rank>
140

> <Conf_Id>
36

> <Delta U+W>
0.272

> <U+W>
-58.060

> <U>
9.781

> <W>
-67.841

> <W(PB)>
-69.537

> <W(SA)>
1.696

> <Valence>
6.123

> <Coulomb>
3.449

> <VdW>
0.209

> <VdW6>
-3.762

> <VdW12>
3.972

> <Bond>
0.078

> <Angle>
2.428

> <Pdih>
3.616

> <Idih>
0.002

> <Tether>
0.000

$$$$
VeraChem MOL file


 13 12  0  0  0  0  0  0  0  0999 V2000     
   20.1793   16.8742   21.7920 C   0  0  0  0  0  0  0  0  0  0  0  0
   19.0038   16.5734   21.7209 O   0  5  0  0  0  0  0  0  0  0  0  0
   21.0716   16.0511   21.8277 O   0  0  0  0  0  0  0  0  0  0  0  0
   20.5857   18.3483   21.8409 C   0  0  0  0  0  0  0  0  0  0  0  0
   21.2651   18.5291   20.9995 H   0  0  0  0  0  0  0  0  0  0  0  0
   21.1662   18.4980   22.7591 H   0  0  0  0  0  0  0  0  0  0  0  0
   19.4133   19.3627   21.7930 C   0  0  0  0  0  0  0  0  0  0  0  0
   18.8311   19.2092   20.8736 H   0  0  0  0  0  0  0  0  0  0  0  0
   18.7320   19.1780   22.6353 H   0  0  0  0  0  0  0  0  0  0  0  0
   19.9176   20.8190   21.8471 C   0  0  0  0  0  0  0  0  0  0  0  0
   20.5770   21.0383   20.9970 H   0  0  0  0  0  0  0  0  0  0  0  0
   19.0746   21.5215   21.8121 H   0  0  0  0  0  0  0  0  0  0  0  0
   20.4771   21.0068   22.7729 H   0  0  0  0  0  0  0  0  0  0  0  0
  1  2  1  0  0  0  0
  1  3  2  0  0  0  0
  1  4  1  0  0  0  0
  4  5  1  0  0  0  0
  4  6  1  0  0  0  0
  4  7  1  0  0  0  0
  7  8  1  0  0  0  0
  7  9  1  0  0  0  0
  7 10  1  0  0  0  0
 10 11  1  0  0  0  0
 10 12  1  0  0  0  0
 10 13  1  0  0  0  0
M  END
> <VConfSearch Rank>
141

> <Conf_Id>
0

> <Delta U+W>
0.000

> <U+W>
-58.332

> <U>
8.390

> <W>
-66.722

> <W(PB)>
-68.455

> <W(SA)>
1.733

> <Valence>
6.333

> <Coulomb>
1.215

> <VdW>
0.842

> <VdW6>
-3.344

> <VdW12>
4.186

> <Bond>
0.091

> <Angle>
2.713

> <Pdih>
3.529

> <Idih>
0.000

> <Tether>
0.000

$$$$
VeraChem MOL file


 13 12  0  0  0  0  0  0  0  0999 V2000     
   20.9820   20.1355   20.3241 C   0  0  0  0  0  0  0  0  0  0  0  0
   22.1565   20.3733   20.5224 O   0  5  0  0  0  0  0  0  0  0  0  0
   20.2752   20.8051   19.5978 O   0  0  0  0  0  0  0  0  0  0  0  0
   20.3565   18.9433   21.0402 C   0  0  0  0  0  0  0  0  0  0  0  0
   21.1270   18.1711   21.1547 H   0  0  0  0  0  0  0  0  0  0  0  0
   19.5755   18.5272   20.3922 H   0  0  0  0  0  0  0  0  0  0  0  0
   19.7623   19.3118   22.4211 C   0  0  0  0  0  0  0  0  0  0  0  0
   20.5510   19.7365   23.0579 H   0  0  0  0  0  0  0  0  0  0  0  0
   18.9991   20.0925   22.2953 H   0  0  0  0  0  0  0  0  0  0  0  0
   19.1384   18.0863   23.1186 C   0  0  0  0  0  0  0  0  0  0  0  0
   18.7229   18.3672   24.0952 H   0  0  0  0  0  0  0  0  0  0  0  0
   18.3262   17.6616   22.5140 H   0  0  0  0  0  0  0  0  0  0  0  0
   19.8900   17.3029   23.2826 H   0  0  0  0  0  0  0  0  0  0  0  0
  1  2  1  0  0  0  0
  1  3  2  0  0  0  0
  1  4  1  0  0  0  0
  4  5  1  0  0  0  0
  4  6  1  0  0  0  0
  4  7  1  0  0  0  0
  7  8  1  0  0  0  0
  7  9  1  0  0  0  0
  7 10  1  0  0  0  0
 10 11  1  0  0  0  0
 10 12  1  0  0  0  0
 10 13  1  0  0  0  0
M  END
> <VConfSearch Rank>
142

> <Conf_Id>
1

> <Delta U+W>
-1.339

> <U+W>
-59.672

> <U>
7.389

> <W>
-67.061

> <W(PB)>
-68.767

> <W(SA)>
1.707

> <Valence>
5.822

> <Coulomb>
1.255

> <VdW>
0.312

> <VdW6>
-3.061

> <VdW12>
3.372

> <Bond>
0.059

> <Angle>
2.241

> <Pdih>
3.522

> <Idih>
0.000

> <Tether>
0.000

$$$$
VeraChem MOL file


 13 12  0  0  0  0  0  0  0  0999 V2000     
   19.6161   20.5321   22.7071 C   0  0  0  0  0  0  0  0  0  0  0  0
   19.2836   21.3932   21.9172 O   0  5  0  0  0  0  0  0  0  0  0  0
   19.0460   20.3344   23.7615 O   0  0  0  0  0  0  0  0  0  0  0  0
   20.8366   19.6788   22.3709 C   0  0  0  0  0  0  0  0  0  0  0  0
   21.1899   19.1936   23.2891 H   0  0  0  0  0  0  0  0  0  0  0  0
   21.6324   20.3598   22.0464 H   0  0  0  0  0  0  0  0  0  0  0  0
   20.5851   18.6176   21.2691 C   0  0  0  0  0  0  0  0  0  0  0  0
   20.1925   19.1092   20.3679 H   0  0  0  0  0  0  0  0  0  0  0  0
   21.5422   18.1584   20.9865 H   0  0  0  0  0  0  0  0  0  0  0  0
   19.6110   17.5119   21.7258 C   0  0  0  0  0  0  0  0  0  0  0  0
   18.6270   17.9309   21.9747 H   0  0  0  0  0  0  0  0  0  0  0  0
   19.4704   16.7678   20.9310 H   0  0  0  0  0  0  0  0  0  0  0  0
   19.9954   16.9924   22.6134 H   0  0  0  0  0  0  0  0  0  0  0  0
  1  2  1  0  0  0  0
  1  3  2  0  0  0  0
  1  4  1  0  0  0  0
  4  5  1  0  0  0  0
  4  6  1  0  0  0  0
  4  7  1  0  0  0  0
  7  8  1  0  0  0  0
  7  9  1  0  0  0  0
  7 10  1  0  0  0  0
 10 11  1  0  0  0  0
 10 12  1  0  0  0  0
 10 13  1  0  0  0  0
M  END
> <VConfSearch Rank>
143

> <Conf_Id>
4

> <Delta U+W>
0.281

> <U+W>
-58.051

> <U>
9.781

> <W>
-67.832

> <W(PB)>
-69.535

> <W(SA)>
1.703

> <Valence>
6.123

> <Coulomb>
3.449

> <VdW>
0.209

> <VdW6>
-3.762

> <VdW12>
3.972

> <Bond>
0.078

> <Angle>
2.428

> <Pdih>
3.616

> <Idih>
0.002

> <Tether>
0.000

$$$$
VeraChem MOL file


 13 12  0  0  0  0  0  0  0  0999 V2000     
   19.0882   17.6732   22.6866 C   0  0  0  0  0  0  0  0  0  0  0  0
   18.0040   18.1312   22.9874 O   0  5  0  0  0  0  0  0  0  0  0  0
   19.2389   16.5639   22.2145 O   0  0  0  0  0  0  0  0  0  0  0  0
   20.3315   18.5198   22.9479 C   0  0  0  0  0  0  0  0  0  0  0  0
   21.0612   17.8803   23.4587 H   0  0  0  0  0  0  0  0  0  0  0  0
   20.0692   19.3227   23.6478 H   0  0  0  0  0  0  0  0  0  0  0  0
   20.9741   19.1152   21.6688 C   0  0  0  0  0  0  0  0  0  0  0  0
   21.9360   19.5766   21.9307 H   0  0  0  0  0  0  0  0  0  0  0  0
   21.1948   18.3068   20.9577 H   0  0  0  0  0  0  0  0  0  0  0  0
   20.0755   20.1720   20.9938 C   0  0  0  0  0  0  0  0  0  0  0  0
   19.8606   21.0010   21.6808 H   0  0  0  0  0  0  0  0  0  0  0  0
   20.5674   20.5868   20.1044 H   0  0  0  0  0  0  0  0  0  0  0  0
   19.1195   19.7336   20.6779 H   0  0  0  0  0  0  0  0  0  0  0  0
  1  2  1  0  0  0  0
  1  3  2  0  0  0  0
  1  4  1  0  0  0  0
  4  5  1  0  0  0  0
  4  6  1  0  0  0  0
  4  7  1  0  0  0  0
  7  8  1  0  0  0  0
  7  9  1  0  0  0  0
  7 10  1  0  0  0  0
 10 11  1  0  0  0  0
 10 12  1  0  0  0  0
 10 13  1  0  0  0  0
M  END
> <VConfSearch Rank>
144

> <Conf_Id>
36

> <Delta U+W>
0.272

> <U+W>
-58.060

> <U>
9.781

> <W>
-67.841

> <W(PB)>
-69.537

> <W(SA)>
1.696

> <Valence>
6.123

> <Coulomb>
3.449

> <VdW>
0.209

> <VdW6>
-3.762

> <VdW12>
3.972

> <Bond>
0.078

> <Angle>
2.428

> <Pdih>
3.616

> <Idih>
0.002

> <Tether>
0.000

$$$$
VeraChem MOL file


 13 12  0  0  0  0  0  0  0  0999 V2000     
   20.3525   19.0174   23.9276 C   0  0  0  0  0  0  0  0  0  0  0  0
   19.9645   17.9019   24.2144 O   0  5  0  0  0  0  0  0  0  0  0  0
   20.7819   19.8002   24.7508 O   0  0  0  0  0  0  0  0  0  0  0  0
   20.3107   19.4866   22.4720 C   0  0  0  0  0  0  0  0  0  0  0  0
   21.3317   19.7698   22.1895 H   0  0  0  0  0  0  0  0  0  0  0  0
   19.7044   20.3997   22.4393 H   0  0  0  0  0  0  0  0  0  0  0  0
   19.7551   18.4539   21.4567 C   0  0  0  0  0  0  0  0  0  0  0  0
   20.3623   17.5386   21.4932 H   0  0  0  0  0  0  0  0  0  0  0  0
   18.7331   18.1692   21.7433 H   0  0  0  0  0  0  0  0  0  0  0  0
   19.7511   19.0134   20.0198 C   0  0  0  0  0  0  0  0  0  0  0  0
   20.7672   19.2770   19.6979 H   0  0  0  0  0  0  0  0  0  0  0  0
   19.3550   18.2693   19.3164 H   0  0  0  0  0  0  0  0  0  0  0  0
   19.1249   19.9126   19.9501 H   0  0  0  0  0  0  0  0  0  0  0  0
  1  2  1  0  0  0  0
  1  3  2  0  0  0  0
  1  4  1  0  0  0  0
  4  5  1  0  0  0  0
  4  6  1  0  0  0  0
  4  7  1  0  0  0  0
  7  8  1  0  0  0  0
  7  9  1  0  0  0  0
  7 10  1  0  0  0  0
 10 11  1  0  0  0  0
 10 12  1  0  0  0  0
 10 13  1  0  0  0  0
M  END
> <VConfSearch Rank>
145

> <Conf_Id>
0

> <Delta U+W>
0.000

> <U+W>
-58.332

> <U>
8.390

> <W>
-66.722

> <W(PB)>
-68.455

> <W(SA)>
1.733

> <Valence>
6.333

> <Coulomb>
1.215

> <VdW>
0.842

> <VdW6>
-3.344

> <VdW12>
4.186

> <Bond>
0.091

> <Angle>
2.713

> <Pdih>
3.529

> <Idih>
0.000

> <Tether>
0.000

$$$$
VeraChem MOL file


 13 12  0  0  0  0  0  0  0  0999 V2000     
   19.4514   17.0100   21.6043 C   0  0  0  0  0  0  0  0  0  0  0  0
   18.4257   16.6647   22.1557 O   0  5  0  0  0  0  0  0  0  0  0  0
   20.3543   16.2462   21.3274 O   0  0  0  0  0  0  0  0  0  0  0  0
   19.6228   18.4853   21.2582 C   0  0  0  0  0  0  0  0  0  0  0  0
   18.6336   18.8987   21.0265 H   0  0  0  0  0  0  0  0  0  0  0  0
   20.2241   18.5537   20.3434 H   0  0  0  0  0  0  0  0  0  0  0  0
   20.2874   19.2993   22.3946 C   0  0  0  0  0  0  0  0  0  0  0  0
   19.6820   19.2154   23.3080 H   0  0  0  0  0  0  0  0  0  0  0  0
   21.2728   18.8703   22.6247 H   0  0  0  0  0  0  0  0  0  0  0  0
   20.4462   20.7849   22.0140 C   0  0  0  0  0  0  0  0  0  0  0  0
   20.9188   21.3451   22.8314 H   0  0  0  0  0  0  0  0  0  0  0  0
   21.0733   20.8964   21.1197 H   0  0  0  0  0  0  0  0  0  0  0  0
   19.4703   21.2441   21.8082 H   0  0  0  0  0  0  0  0  0  0  0  0
  1  2  1  0  0  0  0
  1  3  2  0  0  0  0
  1  4  1  0  0  0  0
  4  5  1  0  0  0  0
  4  6  1  0  0  0  0
  4  7  1  0  0  0  0
  7  8  1  0  0  0  0
  7  9  1  0  0  0  0
  7 10  1  0  0  0  0
 10 11  1  0  0  0  0
 10 12  1  0  0  0  0
 10 13  1  0  0  0  0
M  END
> <VConfSearch Rank>
146

> <Conf_Id>
1

> <Delta U+W>
-1.339

> <U+W>
-59.672

> <U>
7.389

> <W>
-67.061

> <W(PB)>
-68.767

> <W(SA)>
1.707

> <Valence>
5.822

> <Coulomb>
1.255

> <VdW>
0.312

> <VdW6>
-3.061

> <VdW12>
3.372

> <Bond>
0.059

> <Angle>
2.241

> <Pdih>
3.522

> <Idih>
0.000

> <Tether>
0.000

$$$$
VeraChem MOL file


 13 12  0  0  0  0  0  0  0  0999 V2000     
   18.9933   18.2162   20.8288 C   0  0  0  0  0  0  0  0  0  0  0  0
   19.2749   18.3465   19.6541 O   0  5  0  0  0  0  0  0  0  0  0  0
   18.5434   17.1907   21.2997 O   0  0  0  0  0  0  0  0  0  0  0  0
   19.1821   19.4172   21.7522 C   0  0  0  0  0  0  0  0  0  0  0  0
   18.6008   19.2515   22.6676 H   0  0  0  0  0  0  0  0  0  0  0  0
   18.7419   20.2875   21.2509 H   0  0  0  0  0  0  0  0  0  0  0  0
   20.6608   19.7194   22.1061 C   0  0  0  0  0  0  0  0  0  0  0  0
   21.2424   19.8428   21.1818 H   0  0  0  0  0  0  0  0  0  0  0  0
   20.7141   20.6765   22.6427 H   0  0  0  0  0  0  0  0  0  0  0  0
   21.2963   18.6168   22.9782 C   0  0  0  0  0  0  0  0  0  0  0  0
   21.3003   17.6520   22.4538 H   0  0  0  0  0  0  0  0  0  0  0  0
   22.3350   18.8707   23.2267 H   0  0  0  0  0  0  0  0  0  0  0  0
   20.7429   18.4923   23.9182 H   0  0  0  0  0  0  0  0  0  0  0  0
  1  2  1  0  0  0  0
  1  3  2  0  0  0  0
  1  4  1  0  0  0  0
  4  5  1  0  0  0  0
  4  6  1  0  0  0  0
  4  7  1  0  0  0  0
  7  8  1  0  0  0  0
  7  9  1  0  0  0  0
  7 10  1  0  0  0  0
 10 11  1  0  0  0  0
 10 12  1  0  0  0  0
 10 13  1  0  0  0  0
M  END
> <VConfSearch Rank>
147

> <Conf_Id>
4

> <Delta U+W>
0.281

> <U+W>
-58.051

> <U>
9.781

> <W>
-67.832

> <W(PB)>
-69.535

> <W(SA)>
1.703

> <Valence>
6.123

> <Coulomb>
3.449

> <VdW>
0.209

> <VdW6>
-3.762

> <VdW12>
3.972

> <Bond>
0.078

> <Angle>
2.428

> <Pdih>
3.616

> <Idih>
0.002

> <Tether>
0.000

$$$$
VeraChem MOL file


 13 12  0  0  0  0  0  0  0  0999 V2000     
   18.7860   20.0711   21.5253 C   0  0  0  0  0  0  0  0  0  0  0  0
   18.4577   19.8461   20.3775 O   0  5  0  0  0  0  0  0  0  0  0  0
   17.9972   20.3605   22.4029 O   0  0  0  0  0  0  0  0  0  0  0  0
   20.2705   20.0234   21.8781 C   0  0  0  0  0  0  0  0  0  0  0  0
   20.5015   20.9336   22.4443 H   0  0  0  0  0  0  0  0  0  0  0  0
   20.8540   20.0708   20.9504 H   0  0  0  0  0  0  0  0  0  0  0  0
   20.6862   18.7811   22.7073 C   0  0  0  0  0  0  0  0  0  0  0  0
   21.7253   18.9032   23.0421 H   0  0  0  0  0  0  0  0  0  0  0  0
   20.0675   18.7202   23.6136 H   0  0  0  0  0  0  0  0  0  0  0  0
   20.5660   17.4688   21.9052 C   0  0  0  0  0  0  0  0  0  0  0  0
   21.1945   17.4998   21.0055 H   0  0  0  0  0  0  0  0  0  0  0  0
   20.8859   16.6129   22.5136 H   0  0  0  0  0  0  0  0  0  0  0  0
   19.5287   17.2917   21.5913 H   0  0  0  0  0  0  0  0  0  0  0  0
  1  2  1  0  0  0  0
  1  3  2  0  0  0  0
  1  4  1  0  0  0  0
  4  5  1  0  0  0  0
  4  6  1  0  0  0  0
  4  7  1  0  0  0  0
  7  8  1  0  0  0  0
  7  9  1  0  0  0  0
  7 10  1  0  0  0  0
 10 11  1  0  0  0  0
 10 12  1  0  0  0  0
 10 13  1  0  0  0  0
M  END
> <VConfSearch Rank>
148

> <Conf_Id>
36

> <Delta U+W>
0.272

> <U+W>
-58.060

> <U>
9.781

> <W>
-67.841

> <W(PB)>
-69.537

> <W(SA)>
1.696

> <Valence>
6.123

> <Coulomb>
3.449

> <VdW>
0.209

> <VdW6>
-3.762

> <VdW12>
3.972

> <Bond>
0.078

> <Angle>
2.428

> <Pdih>
3.616

> <Idih>
0.002

> <Tether>
0.000

$$$$
VeraChem MOL file


 13 12  0  0  0  0  0  0  0  0999 V2000     
   21.2734   18.6255   20.1349 C   0  0  0  0  0  0  0  0  0  0  0  0
   21.1360   17.4224   20.0294 O   0  5  0  0  0  0  0  0  0  0  0  0
   21.9758   19.2787   19.3901 O   0  0  0  0  0  0  0  0  0  0  0  0
   20.5415   19.3801   21.2465 C   0  0  0  0  0  0  0  0  0  0  0  0
   19.9260   20.1515   20.7686 H   0  0  0  0  0  0  0  0  0  0  0  0
   21.2999   19.9001   21.8438 H   0  0  0  0  0  0  0  0  0  0  0  0
   19.6567   18.5051   22.1725 C   0  0  0  0  0  0  0  0  0  0  0  0
   18.8993   17.9827   21.5716 H   0  0  0  0  0  0  0  0  0  0  0  0
   20.2748   17.7309   22.6481 H   0  0  0  0  0  0  0  0  0  0  0  0
   18.9608   19.3493   23.2592 C   0  0  0  0  0  0  0  0  0  0  0  0
   18.3117   20.1118   22.8087 H   0  0  0  0  0  0  0  0  0  0  0  0
   18.3400   18.7136   23.9039 H   0  0  0  0  0  0  0  0  0  0  0  0
   19.6984   19.8580   23.8938 H   0  0  0  0  0  0  0  0  0  0  0  0
  1  2  1  0  0  0  0
  1  3  2  0  0  0  0
  1  4  1  0  0  0  0
  4  5  1  0  0  0  0
  4  6  1  0  0  0  0
  4  7  1  0  0  0  0
  7  8  1  0  0  0  0
  7  9  1  0  0  0  0
  7 10  1  0  0  0  0
 10 11  1  0  0  0  0
 10 12  1  0  0  0  0
 10 13  1  0  0  0  0
M  END
> <VConfSearch Rank>
149

> <Conf_Id>
0

> <Delta U+W>
0.000

> <U+W>
-58.332

> <U>
8.390

> <W>
-66.722

> <W(PB)>
-68.455

> <W(SA)>
1.733

> <Valence>
6.333

> <Coulomb>
1.215

> <VdW>
0.842

> <VdW6>
-3.344

> <VdW12>
4.186

> <Bond>
0.091

> <Angle>
2.713

> <Pdih>
3.529

> <Idih>
0.000

> <Tether>
0.000

$$$$
VeraChem MOL file


 13 12  0  0  0  0  0  0  0  0999 V2000     
   18.1683   19.8923   22.4774 C   0  0  0  0  0  0  0  0  0  0  0  0
   17.3066   19.1103   22.8258 O   0  5  0  0  0  0  0  0  0  0  0  0
   17.9338   21.0153   22.0785 O   0  0  0  0  0  0  0  0  0  0  0  0
   19.6216   19.4328   22.5256 C   0  0  0  0  0  0  0  0  0  0  0  0
   19.7311   18.7341   23.3639 H   0  0  0  0  0  0  0  0  0  0  0  0
   20.2483   20.3051   22.7477 H   0  0  0  0  0  0  0  0  0  0  0  0
   20.0875   18.7633   21.2100 C   0  0  0  0  0  0  0  0  0  0  0  0
   19.4467   17.8973   20.9926 H   0  0  0  0  0  0  0  0  0  0  0  0
   19.9641   19.4686   20.3762 H   0  0  0  0  0  0  0  0  0  0  0  0
   21.5591   18.3105   21.2909 C   0  0  0  0  0  0  0  0  0  0  0  0
   21.8708   17.8387   20.3499 H   0  0  0  0  0  0  0  0  0  0  0  0
   22.2231   19.1646   21.4782 H   0  0  0  0  0  0  0  0  0  0  0  0
   21.7017   17.5812   22.0992 H   0  0  0  0  0  0  0  0  0  0  0  0
  1  2  1  0  0  0  0
  1  3  2  0  0  0  0
  1  4  1  0  0  0  0
  4  5  1  0  0  0  0
  4  6  1  0  0  0  0
  4  7  1  0  0  0  0
  7  8  1  0  0  0  0
  7  9  1  0  0  0  0
  7 10  1  0  0  0  0
 10 11  1  0  0  0  0
 10 12  1  0  0  0  0
 10 13  1  0  0  0  0
M  END
> <VConfSearch Rank>
150

> <Conf_Id>
1

> <Delta U+W>
-1.339

> <U+W>
-59.672

> <U>
7.389

> <W>
-67.061

> <W(PB)>
-68.767

> <W(SA)>
1.707

> <Valence>
5.822

> <Coulomb>
1.255

> <VdW>
0.312

> <VdW6>
-3.061

> <VdW12>
3.372

> <Bond>
0.059

> <Angle>
2.241

> <Pdih>
3.522

> <Idih>
0.000

> <Tether>
0.000

$$$$
VeraChem MOL file


 13 12  0  0  0  0  0  0  0  0999 V2000     
   18.7095   17.8707   22.0528 C   0  0  0  0  0  0  0  0  0  0  0  0
   18.8983   16.7361   21.6616 O   0  5  0  0  0  0  0  0  0  0  0  0
   18.0228   18.1407   23.0179 O   0  0  0  0  0  0  0  0  0  0  0  0
   19.3402   19.0178   21.2671 C   0  0  0  0  0  0  0  0  0  0  0  0
   18.8305   19.9508   21.5372 H   0  0  0  0  0  0  0  0  0  0  0  0
   19.1327   18.8397   20.2052 H   0  0  0  0  0  0  0  0  0  0  0  0
   20.8693   19.1648   21.4761 C   0  0  0  0  0  0  0  0  0  0  0  0
   21.3656   18.2125   21.2423 H   0  0  0  0  0  0  0  0  0  0  0  0
   21.2598   19.9068   20.7663 H   0  0  0  0  0  0  0  0  0  0  0  0
   21.2297   19.6018   22.9110 C   0  0  0  0  0  0  0  0  0  0  0  0
   20.8924   18.8591   23.6462 H   0  0  0  0  0  0  0  0  0  0  0  0
   22.3161   19.7155   23.0194 H   0  0  0  0  0  0  0  0  0  0  0  0
   20.7612   20.5636   23.1577 H   0  0  0  0  0  0  0  0  0  0  0  0
  1  2  1  0  0  0  0
  1  3  2  0  0  0  0
  1  4  1  0  0  0  0
  4  5  1  0  0  0  0
  4  6  1  0  0  0  0
  4  7  1  0  0  0  0
  7  8  1  0  0  0  0
  7  9  1  0  0  0  0
  7 10  1  0  0  0  0
 10 11  1  0  0  0  0
 10 12  1  0  0  0  0
 10 13  1  0  0  0  0
M  END
> <VConfSearch Rank>
151

> <Conf_Id>
4

> <Delta U+W>
0.281

> <U+W>
-58.051

> <U>
9.781

> <W>
-67.832

> <W(PB)>
-69.535

> <W(SA)>
1.703

> <Valence>
6.123

> <Coulomb>
3.449

> <VdW>
0.209

> <VdW6>
-3.762

> <VdW12>
3.972

> <Bond>
0.078

> <Angle>
2.428

> <Pdih>
3.616

> <Idih>
0.002

> <Tether>
0.000

$$$$
VeraChem MOL file


 13 12  0  0  0  0  0  0  0  0999 V2000     
   21.4782   19.2100   20.8568 C   0  0  0  0  0  0  0  0  0  0  0  0
   22.0468   20.2517   21.1167 O   0  5  0  0  0  0  0  0  0  0  0  0
   22.0556   18.2043   20.4945 O   0  0  0  0  0  0  0  0  0  0  0  0
   19.9552   19.1704   20.9553 C   0  0  0  0  0  0  0  0  0  0  0  0
   19.5796   18.7124   20.0325 H   0  0  0  0  0  0  0  0  0  0  0  0
   19.5773   20.2000   20.9745 H   0  0  0  0  0  0  0  0  0  0  0  0
   19.4187   18.3820   22.1776 C   0  0  0  0  0  0  0  0  0  0  0  0
   18.3289   18.2764   22.0876 H   0  0  0  0  0  0  0  0  0  0  0  0
   19.8359   17.3652   22.1713 H   0  0  0  0  0  0  0  0  0  0  0  0
   19.7492   19.0725   23.5169 C   0  0  0  0  0  0  0  0  0  0  0  0
   19.3220   20.0832   23.5533 H   0  0  0  0  0  0  0  0  0  0  0  0
   19.3390   18.4999   24.3589 H   0  0  0  0  0  0  0  0  0  0  0  0
   20.8347   19.1551   23.6611 H   0  0  0  0  0  0  0  0  0  0  0  0
  1  2  1  0  0  0  0
  1  3  2  0  0  0  0
  1  4  1  0  0  0  0
  4  5  1  0  0  0  0
  4  6  1  0  0  0  0
  4  7  1  0  0  0  0
  7  8  1  0  0  0  0
  7  9  1  0  0  0  0
  7 10  1  0  0  0  0
 10 11  1  0  0  0  0
 10 12  1  0  0  0  0
 10 13  1  0  0  0  0
M  END
> <VConfSearch Rank>
152

> <Conf_Id>
36

> <Delta U+W>
0.272

> <U+W>
-58.060

> <U>
9.781

> <W>
-67.841

> <W(PB)>
-69.537

> <W(SA)>
1.696

> <Valence>
6.123

> <Coulomb>
3.449

> <VdW>
0.209

> <VdW6>
-3.762

> <VdW12>
3.972

> <Bond>
0.078

> <Angle>
2.428

> <Pdih>
3.616

> <Idih>
0.002

> <Tether>
0.000

$$$$
VeraChem MOL file


 13 12  0  0  0  0  0  0  0  0999 V2000     
   19.4099   20.8842   21.0304 C   0  0  0  0  0  0  0  0  0  0  0  0
   19.1780   20.5687   19.8797 O   0  5  0  0  0  0  0  0  0  0  0  0
   19.2737   22.0172   21.4458 O   0  0  0  0  0  0  0  0  0  0  0  0
   19.8971   19.8288   22.0250 C   0  0  0  0  0  0  0  0  0  0  0  0
   19.1879   19.8143   22.8612 H   0  0  0  0  0  0  0  0  0  0  0  0
   20.8575   20.1746   22.4257 H   0  0  0  0  0  0  0  0  0  0  0  0
   20.0562   18.3970   21.4500 C   0  0  0  0  0  0  0  0  0  0  0  0
   19.0934   18.0534   21.0464 H   0  0  0  0  0  0  0  0  0  0  0  0
   20.7650   18.4142   20.6103 H   0  0  0  0  0  0  0  0  0  0  0  0
   20.5501   17.4044   22.5217 C   0  0  0  0  0  0  0  0  0  0  0  0
   19.8421   17.3456   23.3589 H   0  0  0  0  0  0  0  0  0  0  0  0
   20.6565   16.3978   22.0966 H   0  0  0  0  0  0  0  0  0  0  0  0
   21.5270   17.7094   22.9193 H   0  0  0  0  0  0  0  0  0  0  0  0
  1  2  1  0  0  0  0
  1  3  2  0  0  0  0
  1  4  1  0  0  0  0
  4  5  1  0  0  0  0
  4  6  1  0  0  0  0
  4  7  1  0  0  0  0
  7  8  1  0  0  0  0
  7  9  1  0  0  0  0
  7 10  1  0  0  0  0
 10 11  1  0  0  0  0
 10 12  1  0  0  0  0
 10 13  1  0  0  0  0
M  END
> <VConfSearch Rank>
153

> <Conf_Id>
0

> <Delta U+W>
0.000

> <U+W>
-58.332

> <U>
8.390

> <W>
-66.722

> <W(PB)>
-68.455

> <W(SA)>
1.733

> <Valence>
6.333

> <Coulomb>
1.215

> <VdW>
0.842

> <VdW6>
-3.344

> <VdW12>
4.186

> <Bond>
0.091

> <Angle>
2.713

> <Pdih>
3.529

> <Idih>
0.000

> <Tether>
0.000

$$$$
VeraChem MOL file


 13 12  0  0  0  0  0  0  0  0999 V2000     
   19.5441   18.6098   23.8512 C   0  0  0  0  0  0  0  0  0  0  0  0
   20.4801   18.2587   24.5412 O   0  5  0  0  0  0  0  0  0  0  0  0
   18.3881   18.3274   24.0945 O   0  0  0  0  0  0  0  0  0  0  0  0
   19.8379   19.4335   22.6020 C   0  0  0  0  0  0  0  0  0  0  0  0
   20.7184   20.0560   22.8028 H   0  0  0  0  0  0  0  0  0  0  0  0
   18.9932   20.1127   22.4344 H   0  0  0  0  0  0  0  0  0  0  0  0
   20.0775   18.5614   21.3458 C   0  0  0  0  0  0  0  0  0  0  0  0
   20.9190   17.8786   21.5287 H   0  0  0  0  0  0  0  0  0  0  0  0
   19.1935   17.9354   21.1602 H   0  0  0  0  0  0  0  0  0  0  0  0
   20.3716   19.4229   20.1014 C   0  0  0  0  0  0  0  0  0  0  0  0
   20.5386   18.7875   19.2218 H   0  0  0  0  0  0  0  0  0  0  0  0
   19.5309   20.0937   19.8804 H   0  0  0  0  0  0  0  0  0  0  0  0
   21.2697   20.0364   20.2517 H   0  0  0  0  0  0  0  0  0  0  0  0
  1  2  1  0  0  0  0
  1  3  2  0  0  0  0
  1  4  1  0  0  0  0
  4  5  1  0  0  0  0
  4  6  1  0  0  0  0
  4  7  1  0  0  0  0
  7  8  1  0  0  0  0
  7  9  1  0  0  0  0
  7 10  1  0  0  0  0
 10 11  1  0  0  0  0
 10 12  1  0  0  0  0
 10 13  1  0  0  0  0
M  END
> <VConfSearch Rank>
154

> <Conf_Id>
1

> <Delta U+W>
-1.339

> <U+W>
-59.672

> <U>
7.389

> <W>
-67.061

> <W(PB)>
-68.767

> <W(SA)>
1.707

> <Valence>
5.822

> <Coulomb>
1.255

> <VdW>
0.312

> <VdW6>
-3.061

> <VdW12>
3.372

> <Bond>
0.059

> <Angle>
2.241

> <Pdih>
3.522

> <Idih>
0.000

> <Tether>
0.000

$$$$
VeraChem MOL file


 13 12  0  0  0  0  0  0  0  0999 V2000     
   21.7110   19.6423   22.4879 C   0  0  0  0  0  0  0  0  0  0  0  0
   22.5186   19.8097   21.5957 O   0  5  0  0  0  0  0  0  0  0  0  0
   21.5550   20.4235   23.4050 O   0  0  0  0  0  0  0  0  0  0  0  0
   20.8751   18.3649   22.4724 C   0  0  0  0  0  0  0  0  0  0  0  0
   20.4503   18.2107   23.4719 H   0  0  0  0  0  0  0  0  0  0  0  0
   21.5594   17.5285   22.2867 H   0  0  0  0  0  0  0  0  0  0  0  0
   19.7492   18.3562   21.4067 C   0  0  0  0  0  0  0  0  0  0  0  0
   20.1801   18.5525   20.4149 H   0  0  0  0  0  0  0  0  0  0  0  0
   19.3021   17.3536   21.3638 H   0  0  0  0  0  0  0  0  0  0  0  0
   18.6432   19.3886   21.7080 C   0  0  0  0  0  0  0  0  0  0  0  0
   19.0475   20.4096   21.7146 H   0  0  0  0  0  0  0  0  0  0  0  0
   17.8535   19.3428   20.9468 H   0  0  0  0  0  0  0  0  0  0  0  0
   18.1834   19.1970   22.6864 H   0  0  0  0  0  0  0  0  0  0  0  0
  1  2  1  0  0  0  0
  1  3  2  0  0  0  0
  1  4  1  0  0  0  0
  4  5  1  0  0  0  0
  4  6  1  0  0  0  0
  4  7  1  0  0  0  0
  7  8  1  0  0  0  0
  7  9  1  0  0  0  0
  7 10  1  0  0  0  0
 10 11  1  0  0  0  0
 10 12  1  0  0  0  0
 10 13  1  0  0  0  0
M  END
> <VConfSearch Rank>
155

> <Conf_Id>
4

> <Delta U+W>
0.281

> <U+W>
-58.051

> <U>
9.781

> <W>
-67.832

> <W(PB)>
-69.535

> <W(SA)>
1.703

> <Valence>
6.123

> <Coulomb>
3.449

> <VdW>
0.209

> <VdW6>
-3.762

> <VdW12>
3.972

> <Bond>
0.078

> <Angle>
2.428

> <Pdih>
3.616

> <Idih>
0.002

> <Tether>
0.000

$$$$
VeraChem MOL file


 13 12  0  0  0  0  0  0  0  0999 V2000     
   18.4116   19.5176   21.9803 C   0  0  0  0  0  0  0  0  0  0  0  0
   17.7384   18.7773   22.6693 O   0  5  0  0  0  0  0  0  0  0  0  0
   18.2391   20.7188   21.9216 O   0  0  0  0  0  0  0  0  0  0  0  0
   19.5094   18.9044   21.1145 C   0  0  0  0  0  0  0  0  0  0  0  0
   19.4013   19.3209   20.1059 H   0  0  0  0  0  0  0  0  0  0  0  0
   19.3306   17.8253   21.0324 H   0  0  0  0  0  0  0  0  0  0  0  0
   20.9470   19.1696   21.6304 C   0  0  0  0  0  0  0  0  0  0  0  0
   21.6688   18.8281   20.8760 H   0  0  0  0  0  0  0  0  0  0  0  0
   21.1016   20.2513   21.7484 H   0  0  0  0  0  0  0  0  0  0  0  0
   21.2366   18.4532   22.9656 C   0  0  0  0  0  0  0  0  0  0  0  0
   21.1095   17.3674   22.8640 H   0  0  0  0  0  0  0  0  0  0  0  0
   22.2669   18.6454   23.2922 H   0  0  0  0  0  0  0  0  0  0  0  0
   20.5603   18.8038   23.7565 H   0  0  0  0  0  0  0  0  0  0  0  0
  1  2  1  0  0  0  0
  1  3  2  0  0  0  0
  1  4  1  0  0  0  0
  4  5  1  0  0  0  0
  4  6  1  0  0  0  0
  4  7  1  0  0  0  0
  7  8  1  0  0  0  0
  7  9  1  0  0  0  0
  7 10  1  0  0  0  0
 10 11  1  0  0  0  0
 10 12  1  0  0  0  0
 10 13  1  0  0  0  0
M  END
> <VConfSearch Rank>
156

> <Conf_Id>
36

> <Delta U+W>
0.272

> <U+W>
-58.060

> <U>
9.781

> <W>
-67.841

> <W(PB)>
-69.537

> <W(SA)>
1.696

> <Valence>
6.123

> <Coulomb>
3.449

> <VdW>
0.209

> <VdW6>
-3.762

> <VdW12>
3.972

> <Bond>
0.078

> <Angle>
2.428

> <Pdih>
3.616

> <Idih>
0.002

> <Tether>
0.000

$$$$
VeraChem MOL file


 13 12  0  0  0  0  0  0  0  0999 V2000     
   18.2777   19.4367   22.9667 C   0  0  0  0  0  0  0  0  0  0  0  0
   18.7141   20.3008   23.7016 O   0  5  0  0  0  0  0  0  0  0  0  0
   17.1281   19.0480   23.0124 O   0  0  0  0  0  0  0  0  0  0  0  0
   19.1936   18.7893   21.9261 C   0  0  0  0  0  0  0  0  0  0  0  0
   18.7314   18.9407   20.9433 H   0  0  0  0  0  0  0  0  0  0  0  0
   19.1944   17.7095   22.1166 H   0  0  0  0  0  0  0  0  0  0  0  0
   20.6520   19.3171   21.9044 C   0  0  0  0  0  0  0  0  0  0  0  0
   20.6489   20.3998   21.7162 H   0  0  0  0  0  0  0  0  0  0  0  0
   21.1124   19.1672   22.8910 H   0  0  0  0  0  0  0  0  0  0  0  0
   21.4981   18.6087   20.8274 C   0  0  0  0  0  0  0  0  0  0  0  0
   21.0754   18.7697   19.8269 H   0  0  0  0  0  0  0  0  0  0  0  0
   22.5257   18.9949   20.8272 H   0  0  0  0  0  0  0  0  0  0  0  0
   21.5426   17.5271   21.0111 H   0  0  0  0  0  0  0  0  0  0  0  0
  1  2  1  0  0  0  0
  1  3  2  0  0  0  0
  1  4  1  0  0  0  0
  4  5  1  0  0  0  0
  4  6  1  0  0  0  0
  4  7  1  0  0  0  0
  7  8  1  0  0  0  0
  7  9  1  0  0  0  0
  7 10  1  0  0  0  0
 10 11  1  0  0  0  0
 10 12  1  0  0  0  0
 10 13  1  0  0  0  0
M  END
> <VConfSearch Rank>
157

> <Conf_Id>
0

> <Delta U+W>
0.000

> <U+W>
-58.332

> <U>
8.390

> <W>
-66.722

> <W(PB)>
-68.455

> <W(SA)>
1.733

> <Valence>
6.333

> <Coulomb>
1.215

> <VdW>
0.842

> <VdW6>
-3.344

> <VdW12>
4.186

> <Bond>
0.091

> <Angle>
2.713

> <Pdih>
3.529

> <Idih>
0.000

> <Tether>
0.000

$$$$
VeraChem MOL file


 13 12  0  0  0  0  0  0  0  0999 V2000     
   20.2130   17.2518   22.9339 C   0  0  0  0  0  0  0  0  0  0  0  0
   19.8471   16.2343   22.3805 O   0  5  0  0  0  0  0  0  0  0  0  0
   20.2779   17.3731   24.1407 O   0  0  0  0  0  0  0  0  0  0  0  0
   20.5936   18.4474   22.0672 C   0  0  0  0  0  0  0  0  0  0  0  0
   21.0266   18.0683   21.1335 H   0  0  0  0  0  0  0  0  0  0  0  0
   21.3818   19.0073   22.5851 H   0  0  0  0  0  0  0  0  0  0  0  0
   19.3945   19.3766   21.7596 C   0  0  0  0  0  0  0  0  0  0  0  0
   18.6077   18.8030   21.2500 H   0  0  0  0  0  0  0  0  0  0  0  0
   18.9631   19.7424   22.7019 H   0  0  0  0  0  0  0  0  0  0  0  0
   19.8118   20.5742   20.8826 C   0  0  0  0  0  0  0  0  0  0  0  0
   18.9491   21.2209   20.6754 H   0  0  0  0  0  0  0  0  0  0  0  0
   20.5773   21.1806   21.3843 H   0  0  0  0  0  0  0  0  0  0  0  0
   20.2191   20.2341   19.9214 H   0  0  0  0  0  0  0  0  0  0  0  0
  1  2  1  0  0  0  0
  1  3  2  0  0  0  0
  1  4  1  0  0  0  0
  4  5  1  0  0  0  0
  4  6  1  0  0  0  0
  4  7  1  0  0  0  0
  7  8  1  0  0  0  0
  7  9  1  0  0  0  0
  7 10  1  0  0  0  0
 10 11  1  0  0  0  0
 10 12  1  0  0  0  0
 10 13  1  0  0  0  0
M  END
> <VConfSearch Rank>
158

> <Conf_Id>
1

> <Delta U+W>
-1.339

> <U+W>
-59.672

> <U>
7.389

> <W>
-67.061

> <W(PB)>
-68.767

> <W(SA)>
1.707

> <Valence>
5.822

> <Coulomb>
1.255

> <VdW>
0.312

> <VdW6>
-3.061

> <VdW12>
3.372

> <Bond>
0.059

> <Angle>
2.241

> <Pdih>
3.522

> <Idih>
0.000

> <Tether>
0.000

$$$$
VeraChem MOL file


 13 12  0  0  0  0  0  0  0  0999 V2000     
   19.7428   20.6960   21.7189 C   0  0  0  0  0  0  0  0  0  0  0  0
   20.6865   21.4610   21.7392 O   0  5  0  0  0  0  0  0  0  0  0  0
   18.8232   20.7879   20.9303 O   0  0  0  0  0  0  0  0  0  0  0  0
   19.6949   19.5835   22.7632 C   0  0  0  0  0  0  0  0  0  0  0  0
   18.6689   19.1998   22.8211 H   0  0  0  0  0  0  0  0  0  0  0  0
   19.9182   20.0381   23.7358 H   0  0  0  0  0  0  0  0  0  0  0  0
   20.6855   18.4209   22.4979 C   0  0  0  0  0  0  0  0  0  0  0  0
   21.7045   18.8209   22.4006 H   0  0  0  0  0  0  0  0  0  0  0  0
   20.6921   17.7484   23.3666 H   0  0  0  0  0  0  0  0  0  0  0  0
   20.3210   17.6110   21.2365 C   0  0  0  0  0  0  0  0  0  0  0  0
   20.3479   18.2440   20.3396 H   0  0  0  0  0  0  0  0  0  0  0  0
   21.0292   16.7853   21.0888 H   0  0  0  0  0  0  0  0  0  0  0  0
   19.3135   17.1831   21.3223 H   0  0  0  0  0  0  0  0  0  0  0  0
  1  2  1  0  0  0  0
  1  3  2  0  0  0  0
  1  4  1  0  0  0  0
  4  5  1  0  0  0  0
  4  6  1  0  0  0  0
  4  7  1  0  0  0  0
  7  8  1  0  0  0  0
  7  9  1  0  0  0  0
  7 10  1  0  0  0  0
 10 11  1  0  0  0  0
 10 12  1  0  0  0  0
 10 13  1  0  0  0  0
M  END
> <VConfSearch Rank>
159

> <Conf_Id>
4

> <Delta U+W>
0.281

> <U+W>
-58.051

> <U>
9.781

> <W>
-67.832

> <W(PB)>
-69.535

> <W(SA)>
1.703

> <Valence>
6.123

> <Coulomb>
3.449

> <VdW>
0.209

> <VdW6>
-3.762

> <VdW12>
3.972

> <Bond>
0.078

> <Angle>
2.428

> <Pdih>
3.616

> <Idih>
0.002

> <Tether>
0.000

$$$$
VeraChem MOL file


 13 12  0  0  0  0  0  0  0  0999 V2000     
   20.6343   20.6559   22.3032 C   0  0  0  0  0  0  0  0  0  0  0  0
   20.9124   20.7897   23.4782 O   0  5  0  0  0  0  0  0  0  0  0  0
   21.2463   21.1976   21.4043 O   0  0  0  0  0  0  0  0  0  0  0  0
   19.4310   19.7909   21.9362 C   0  0  0  0  0  0  0  0  0  0  0  0
   18.8237   20.3611   21.2232 H   0  0  0  0  0  0  0  0  0  0  0  0
   18.8153   19.6469   22.8326 H   0  0  0  0  0  0  0  0  0  0  0  0
   19.8011   18.4189   21.3166 C   0  0  0  0  0  0  0  0  0  0  0  0
   18.8878   17.9326   20.9474 H   0  0  0  0  0  0  0  0  0  0  0  0
   20.4516   18.5728   20.4442 H   0  0  0  0  0  0  0  0  0  0  0  0
   20.4970   17.4834   22.3268 C   0  0  0  0  0  0  0  0  0  0  0  0
   19.8542   17.2982   23.1974 H   0  0  0  0  0  0  0  0  0  0  0  0
   20.7272   16.5156   21.8626 H   0  0  0  0  0  0  0  0  0  0  0  0
   21.4391   17.9195   22.6844 H   0  0  0  0  0  0  0  0  0  0  0  0
  1  2  1  0  0  0  0
  1  3  2  0  0  0  0
  1  4  1  0  0  0  0
  4  5  1  0  0  0  0
  4  6  1  0  0  0  0
  4  7  1  0  0  0  0
  7  8  1  0  0  0  0
  7  9  1  0  0  0  0
  7 10  1  0  0  0  0
 10 11  1  0  0  0  0
 10 12  1  0  0  0  0
 10 13  1  0  0  0  0
M  END
> <VConfSearch Rank>
160

> <Conf_Id>
36

> <Delta U+W>
0.272

> <U+W>
-58.060

> <U>
9.781

> <W>
-67.841

> <W(PB)>
-69.537

> <W(SA)>
1.696

> <Valence>
6.123

> <Coulomb>
3.449

> <VdW>
0.209

> <VdW6>
-3.762

> <VdW12>
3.972

> <Bond>
0.078

> <Angle>
2.428

> <Pdih>
3.616

> <Idih>
0.002

> <Tether>
0.000

$$$$
VeraChem MOL file


 13 12  0  0  0  0  0  0  0  0999 V2000     
   21.3020   20.6728   22.1602 C   0  0  0  0  0  0  0  0  0  0  0  0
   20.4933   21.4819   22.5708 O   0  5  0  0  0  0  0  0  0  0  0  0
   22.4844   20.9223   22.0396 O   0  0  0  0  0  0  0  0  0  0  0  0
   20.8407   19.2675   21.7690 C   0  0  0  0  0  0  0  0  0  0  0  0
   21.4144   18.5543   22.3727 H   0  0  0  0  0  0  0  0  0  0  0  0
   21.1295   19.1070   20.7234 H   0  0  0  0  0  0  0  0  0  0  0  0
   19.3233   18.9947   21.9397 C   0  0  0  0  0  0  0  0  0  0  0  0
   19.0354   19.1589   22.9875 H   0  0  0  0  0  0  0  0  0  0  0  0
   18.7502   19.7123   21.3362 H   0  0  0  0  0  0  0  0  0  0  0  0
   18.9526   17.5573   21.5219 C   0  0  0  0  0  0  0  0  0  0  0  0
   19.4899   16.8198   22.1325 H   0  0  0  0  0  0  0  0  0  0  0  0
   17.8762   17.3833   21.6495 H   0  0  0  0  0  0  0  0  0  0  0  0
   19.2024   17.3777   20.4680 H   0  0  0  0  0  0  0  0  0  0  0  0
  1  2  1  0  0  0  0
  1  3  2  0  0  0  0
  1  4  1  0  0  0  0
  4  5  1  0  0  0  0
  4  6  1  0  0  0  0
  4  7  1  0  0  0  0
  7  8  1  0  0  0  0
  7  9  1  0  0  0  0
  7 10  1  0  0  0  0
 10 11  1  0  0  0  0
 10 12  1  0  0  0  0
 10 13  1  0  0  0  0
M  END
> <VConfSearch Rank>
161

> <Conf_Id>
0

> <Delta U+W>
0.000

> <U+W>
-58.332

> <U>
8.390

> <W>
-66.722

> <W(PB)>
-68.455

> <W(SA)>
1.733

> <Valence>
6.333

> <Coulomb>
1.215

> <VdW>
0.842

> <VdW6>
-3.344

> <VdW12>
4.186

> <Bond>
0.091

> <Angle>
2.713

> <Pdih>
3.529

> <Idih>
0.000

> <Tether>
0.000

$$$$
VeraChem MOL file


 13 12  0  0  0  0  0  0  0  0999 V2000     
   21.7685   19.0739   20.6945 C   0  0  0  0  0  0  0  0  0  0  0  0
   22.6880   19.7161   21.1609 O   0  5  0  0  0  0  0  0  0  0  0  0
   21.6490   18.8366   19.5093 O   0  0  0  0  0  0  0  0  0  0  0  0
   20.6965   18.5534   21.6461 C   0  0  0  0  0  0  0  0  0  0  0  0
   21.1733   18.3306   22.6084 H   0  0  0  0  0  0  0  0  0  0  0  0
   20.3165   17.6053   21.2464 H   0  0  0  0  0  0  0  0  0  0  0  0
   19.5311   19.5518   21.8475 C   0  0  0  0  0  0  0  0  0  0  0  0
   19.9247   20.5005   22.2385 H   0  0  0  0  0  0  0  0  0  0  0  0
   19.0677   19.7750   20.8763 H   0  0  0  0  0  0  0  0  0  0  0  0
   18.4654   18.9967   22.8136 C   0  0  0  0  0  0  0  0  0  0  0  0
   17.6480   19.7180   22.9436 H   0  0  0  0  0  0  0  0  0  0  0  0
   18.0352   18.0625   22.4291 H   0  0  0  0  0  0  0  0  0  0  0  0
   18.8988   18.7937   23.8018 H   0  0  0  0  0  0  0  0  0  0  0  0
  1  2  1  0  0  0  0
  1  3  2  0  0  0  0
  1  4  1  0  0  0  0
  4  5  1  0  0  0  0
  4  6  1  0  0  0  0
  4  7  1  0  0  0  0
  7  8  1  0  0  0  0
  7  9  1  0  0  0  0
  7 10  1  0  0  0  0
 10 11  1  0  0  0  0
 10 12  1  0  0  0  0
 10 13  1  0  0  0  0
M  END
> <VConfSearch Rank>
162

> <Conf_Id>
1

> <Delta U+W>
-1.339

> <U+W>
-59.672

> <U>
7.389

> <W>
-67.061

> <W(PB)>
-68.767

> <W(SA)>
1.707

> <Valence>
5.822

> <Coulomb>
1.255

> <VdW>
0.312

> <VdW6>
-3.061

> <VdW12>
3.372

> <Bond>
0.059

> <Angle>
2.241

> <Pdih>
3.522

> <Idih>
0.000

> <Tether>
0.000

$$$$
VeraChem MOL file


 13 12  0  0  0  0  0  0  0  0999 V2000     
   19.4806   17.3215   22.2889 C   0  0  0  0  0  0  0  0  0  0  0  0
   18.2978   17.1637   22.0603 O   0  5  0  0  0  0  0  0  0  0  0  0
   20.3307   16.4972   22.0176 O   0  0  0  0  0  0  0  0  0  0  0  0
   19.9140   18.6087   22.9860 C   0  0  0  0  0  0  0  0  0  0  0  0
   20.9192   18.4627   23.4001 H   0  0  0  0  0  0  0  0  0  0  0  0
   19.2402   18.7625   23.8372 H   0  0  0  0  0  0  0  0  0  0  0  0
   19.8888   19.8631   22.0753 C   0  0  0  0  0  0  0  0  0  0  0  0
   18.8889   19.9764   21.6332 H   0  0  0  0  0  0  0  0  0  0  0  0
   20.0657   20.7569   22.6890 H   0  0  0  0  0  0  0  0  0  0  0  0
   20.9493   19.8019   20.9566 C   0  0  0  0  0  0  0  0  0  0  0  0
   20.7762   18.9426   20.2952 H   0  0  0  0  0  0  0  0  0  0  0  0
   20.9178   20.7120   20.3436 H   0  0  0  0  0  0  0  0  0  0  0  0
   21.9591   19.7108   21.3777 H   0  0  0  0  0  0  0  0  0  0  0  0
  1  2  1  0  0  0  0
  1  3  2  0  0  0  0
  1  4  1  0  0  0  0
  4  5  1  0  0  0  0
  4  6  1  0  0  0  0
  4  7  1  0  0  0  0
  7  8  1  0  0  0  0
  7  9  1  0  0  0  0
  7 10  1  0  0  0  0
 10 11  1  0  0  0  0
 10 12  1  0  0  0  0
 10 13  1  0  0  0  0
M  END
> <VConfSearch Rank>
163

> <Conf_Id>
4

> <Delta U+W>
0.281

> <U+W>
-58.051

> <U>
9.781

> <W>
-67.832

> <W(PB)>
-69.535

> <W(SA)>
1.703

> <Valence>
6.123

> <Coulomb>
3.449

> <VdW>
0.209

> <VdW6>
-3.762

> <VdW12>
3.972

> <Bond>
0.078

> <Angle>
2.428

> <Pdih>
3.616

> <Idih>
0.002

> <Tether>
0.000

$$$$
VeraChem MOL file


 13 12  0  0  0  0  0  0  0  0999 V2000     
   20.6338   19.2607   23.6873 C   0  0  0  0  0  0  0  0  0  0  0  0
   21.4884   18.4548   23.9973 O   0  5  0  0  0  0  0  0  0  0  0  0
   20.6449   20.4208   24.0481 O   0  0  0  0  0  0  0  0  0  0  0  0
   19.4646   18.7846   22.8288 C   0  0  0  0  0  0  0  0  0  0  0  0
   18.5434   19.1444   23.3023 H   0  0  0  0  0  0  0  0  0  0  0  0
   19.4293   17.6886   22.8596 H   0  0  0  0  0  0  0  0  0  0  0  0
   19.5149   19.2759   21.3593 C   0  0  0  0  0  0  0  0  0  0  0  0
   18.5707   19.0172   20.8608 H   0  0  0  0  0  0  0  0  0  0  0  0
   19.5918   20.3721   21.3405 H   0  0  0  0  0  0  0  0  0  0  0  0
   20.6873   18.6578   20.5699 C   0  0  0  0  0  0  0  0  0  0  0  0
   20.6175   17.5622   20.5572 H   0  0  0  0  0  0  0  0  0  0  0  0
   20.6823   19.0105   19.5303 H   0  0  0  0  0  0  0  0  0  0  0  0
   21.6522   18.9335   21.0158 H   0  0  0  0  0  0  0  0  0  0  0  0
  1  2  1  0  0  0  0
  1  3  2  0  0  0  0
  1  4  1  0  0  0  0
  4  5  1  0  0  0  0
  4  6  1  0  0  0  0
  4  7  1  0  0  0  0
  7  8  1  0  0  0  0
  7  9  1  0  0  0  0
  7 10  1  0  0  0  0
 10 11  1  0  0  0  0
 10 12  1  0  0  0  0
 10 13  1  0  0  0  0
M  END
> <VConfSearch Rank>
164

> <Conf_Id>
36

> <Delta U+W>
0.272

> <U+W>
-58.060

> <U>
9.781

> <W>
-67.841

> <W(PB)>
-69.537

> <W(SA)>
1.696

> <Valence>
6.123

> <Coulomb>
3.449

> <VdW>
0.209

> <VdW6>
-3.762

> <VdW12>
3.972

> <Bond>
0.078

> <Angle>
2.428

> <Pdih>
3.616

> <Idih>
0.002

> <Tether>
0.000

$$$$
VeraChem MOL file


 13 12  0  0  0  0  0  0  0  0999 V2000     
   21.1991   20.7523   22.1298 C   0  0  0  0  0  0  0  0  0  0  0  0
   22.3053   20.2557   22.2141 O   0  5  0  0  0  0  0  0  0  0  0  0
   21.0019   21.9471   22.2213 O   0  0  0  0  0  0  0  0  0  0  0  0
   19.9795   19.8582   21.8982 C   0  0  0  0  0  0  0  0  0  0  0  0
   19.4881   20.2051   20.9814 H   0  0  0  0  0  0  0  0  0  0  0  0
   19.2803   20.0373   22.7237 H   0  0  0  0  0  0  0  0  0  0  0  0
   20.2796   18.3404   21.7879 C   0  0  0  0  0  0  0  0  0  0  0  0
   20.9827   18.1634   20.9619 H   0  0  0  0  0  0  0  0  0  0  0  0
   20.7747   17.9954   22.7063 H   0  0  0  0  0  0  0  0  0  0  0  0
   18.9941   17.5211   21.5557 C   0  0  0  0  0  0  0  0  0  0  0  0
   18.4962   17.8261   20.6259 H   0  0  0  0  0  0  0  0  0  0  0  0
   19.2263   16.4507   21.4804 H   0  0  0  0  0  0  0  0  0  0  0  0
   18.2866   17.6569   22.3843 H   0  0  0  0  0  0  0  0  0  0  0  0
  1  2  1  0  0  0  0
  1  3  2  0  0  0  0
  1  4  1  0  0  0  0
  4  5  1  0  0  0  0
  4  6  1  0  0  0  0
  4  7  1  0  0  0  0
  7  8  1  0  0  0  0
  7  9  1  0  0  0  0
  7 10  1  0  0  0  0
 10 11  1  0  0  0  0
 10 12  1  0  0  0  0
 10 13  1  0  0  0  0
M  END
> <VConfSearch Rank>
165

> <Conf_Id>
0

> <Delta U+W>
0.000

> <U+W>
-58.332

> <U>
8.390

> <W>
-66.722

> <W(PB)>
-68.455

> <W(SA)>
1.733

> <Valence>
6.333

> <Coulomb>
1.215

> <VdW>
0.842

> <VdW6>
-3.344

> <VdW12>
4.186

> <Bond>
0.091

> <Angle>
2.713

> <Pdih>
3.529

> <Idih>
0.000

> <Tether>
0.000

$$$$
VeraChem MOL file


 13 12  0  0  0  0  0  0  0  0999 V2000     
   21.2993   17.4386   21.4061 C   0  0  0  0  0  0  0  0  0  0  0  0
   21.9886   17.0529   22.3289 O   0  5  0  0  0  0  0  0  0  0  0  0
   21.5965   17.2883   20.2380 O   0  0  0  0  0  0  0  0  0  0  0  0
   19.9999   18.1673   21.7318 C   0  0  0  0  0  0  0  0  0  0  0  0
   19.5987   17.7500   22.6634 H   0  0  0  0  0  0  0  0  0  0  0  0
   19.2754   17.9441   20.9392 H   0  0  0  0  0  0  0  0  0  0  0  0
   20.1839   19.6980   21.8696 C   0  0  0  0  0  0  0  0  0  0  0  0
   20.9186   19.9092   22.6591 H   0  0  0  0  0  0  0  0  0  0  0  0
   20.5951   20.1033   20.9345 H   0  0  0  0  0  0  0  0  0  0  0  0
   18.8536   20.4047   22.1987 C   0  0  0  0  0  0  0  0  0  0  0  0
   19.0041   21.4881   22.2924 H   0  0  0  0  0  0  0  0  0  0  0  0
   18.1114   20.2326   21.4081 H   0  0  0  0  0  0  0  0  0  0  0  0
   18.4374   20.0370   23.1459 H   0  0  0  0  0  0  0  0  0  0  0  0
  1  2  1  0  0  0  0
  1  3  2  0  0  0  0
  1  4  1  0  0  0  0
  4  5  1  0  0  0  0
  4  6  1  0  0  0  0
  4  7  1  0  0  0  0
  7  8  1  0  0  0  0
  7  9  1  0  0  0  0
  7 10  1  0  0  0  0
 10 11  1  0  0  0  0
 10 12  1  0  0  0  0
 10 13  1  0  0  0  0
M  END
> <VConfSearch Rank>
166

> <Conf_Id>
1

> <Delta U+W>
-1.339

> <U+W>
-59.672

> <U>
7.389

> <W>
-67.061

> <W(PB)>
-68.767

> <W(SA)>
1.707

> <Valence>
5.822

> <Coulomb>
1.255

> <VdW>
0.312

> <VdW6>
-3.061

> <VdW12>
3.372

> <Bond>
0.059

> <Angle>
2.241

> <Pdih>
3.522

> <Idih>
0.000

> <Tether>
0.000

$$$$
VeraChem MOL file


 13 12  0  0  0  0  0  0  0  0999 V2000     
   20.5295   19.6994   23.5819 C   0  0  0  0  0  0  0  0  0  0  0  0
   21.2833   19.0596   24.2879 O   0  5  0  0  0  0  0  0  0  0  0  0
   20.5796   20.9082   23.4715 O   0  0  0  0  0  0  0  0  0  0  0  0
   19.4402   18.9459   22.8227 C   0  0  0  0  0  0  0  0  0  0  0  0
   18.6721   19.6625   22.5067 H   0  0  0  0  0  0  0  0  0  0  0  0
   18.9612   18.2608   23.5323 H   0  0  0  0  0  0  0  0  0  0  0  0
   19.9571   18.1440   21.6008 C   0  0  0  0  0  0  0  0  0  0  0  0
   20.7545   17.4589   21.9212 H   0  0  0  0  0  0  0  0  0  0  0  0
   19.1425   17.5192   21.2096 H   0  0  0  0  0  0  0  0  0  0  0  0
   20.4777   19.0579   20.4722 C   0  0  0  0  0  0  0  0  0  0  0  0
   21.3242   19.6669   20.8163 H   0  0  0  0  0  0  0  0  0  0  0  0
   20.8171   18.4604   19.6161 H   0  0  0  0  0  0  0  0  0  0  0  0
   19.6891   19.7364   20.1215 H   0  0  0  0  0  0  0  0  0  0  0  0
  1  2  1  0  0  0  0
  1  3  2  0  0  0  0
  1  4  1  0  0  0  0
  4  5  1  0  0  0  0
  4  6  1  0  0  0  0
  4  7  1  0  0  0  0
  7  8  1  0  0  0  0
  7  9  1  0  0  0  0
  7 10  1  0  0  0  0
 10 11  1  0  0  0  0
 10 12  1  0  0  0  0
 10 13  1  0  0  0  0
M  END
> <VConfSearch Rank>
167

> <Conf_Id>
4

> <Delta U+W>
0.281

> <U+W>
-58.051

> <U>
9.781

> <W>
-67.832

> <W(PB)>
-69.535

> <W(SA)>
1.703

> <Valence>
6.123

> <Coulomb>
3.449

> <VdW>
0.209

> <VdW6>
-3.762

> <VdW12>
3.972

> <Bond>
0.078

> <Angle>
2.428

> <Pdih>
3.616

> <Idih>
0.002

> <Tether>
0.000

$$$$
VeraChem MOL file


 13 12  0  0  0  0  0  0  0  0999 V2000     
   19.3446   20.4148   21.2751 C   0  0  0  0  0  0  0  0  0  0  0  0
   20.1995   21.2176   20.9581 O   0  5  0  0  0  0  0  0  0  0  0  0
   18.3402   20.2131   20.6218 O   0  0  0  0  0  0  0  0  0  0  0  0
   19.5217   19.6434   22.5806 C   0  0  0  0  0  0  0  0  0  0  0  0
   18.5752   19.7094   23.1304 H   0  0  0  0  0  0  0  0  0  0  0  0
   20.2782   20.1529   23.1900 H   0  0  0  0  0  0  0  0  0  0  0  0
   19.9045   18.1533   22.3903 C   0  0  0  0  0  0  0  0  0  0  0  0
   19.8627   17.6439   23.3627 H   0  0  0  0  0  0  0  0  0  0  0  0
   19.1627   17.6626   21.7446 H   0  0  0  0  0  0  0  0  0  0  0  0
   21.3148   17.9781   21.7899 C   0  0  0  0  0  0  0  0  0  0  0  0
   22.0750   18.4425   22.4317 H   0  0  0  0  0  0  0  0  0  0  0  0
   21.5618   16.9134   21.6868 H   0  0  0  0  0  0  0  0  0  0  0  0
   21.3802   18.4382   20.7950 H   0  0  0  0  0  0  0  0  0  0  0  0
  1  2  1  0  0  0  0
  1  3  2  0  0  0  0
  1  4  1  0  0  0  0
  4  5  1  0  0  0  0
  4  6  1  0  0  0  0
  4  7  1  0  0  0  0
  7  8  1  0  0  0  0
  7  9  1  0  0  0  0
  7 10  1  0  0  0  0
 10 11  1  0  0  0  0
 10 12  1  0  0  0  0
 10 13  1  0  0  0  0
M  END
> <VConfSearch Rank>
168

> <Conf_Id>
36

> <Delta U+W>
0.272

> <U+W>
-58.060

> <U>
9.781

> <W>
-67.841

> <W(PB)>
-69.537

> <W(SA)>
1.696

> <Valence>
6.123

> <Coulomb>
3.449

> <VdW>
0.209

> <VdW6>
-3.762

> <VdW12>
3.972

> <Bond>
0.078

> <Angle>
2.428

> <Pdih>
3.616

> <Idih>
0.002

> <Tether>
0.000

$$$$
VeraChem MOL file


 13 12  0  0  0  0  0  0  0  0999 V2000     
   19.9630   19.5111   23.8905 C   0  0  0  0  0  0  0  0  0  0  0  0
   20.8934   18.8462   24.3024 O   0  5  0  0  0  0  0  0  0  0  0  0
   19.2879   20.2203   24.6089 O   0  0  0  0  0  0  0  0  0  0  0  0
   19.6006   19.4742   22.4046 C   0  0  0  0  0  0  0  0  0  0  0  0
   19.6496   20.5035   22.0297 H   0  0  0  0  0  0  0  0  0  0  0  0
   18.5539   19.1559   22.3303 H   0  0  0  0  0  0  0  0  0  0  0  0
   20.4897   18.5554   21.5264 C   0  0  0  0  0  0  0  0  0  0  0  0
   21.5385   18.8742   21.6046 H   0  0  0  0  0  0  0  0  0  0  0  0
   20.4415   17.5250   21.9056 H   0  0  0  0  0  0  0  0  0  0  0  0
   20.0510   18.5822   20.0484 C   0  0  0  0  0  0  0  0  0  0  0  0
   20.1200   19.5976   19.6364 H   0  0  0  0  0  0  0  0  0  0  0  0
   20.6910   17.9268   19.4433 H   0  0  0  0  0  0  0  0  0  0  0  0
   19.0142   18.2376   19.9399 H   0  0  0  0  0  0  0  0  0  0  0  0
  1  2  1  0  0  0  0
  1  3  2  0  0  0  0
  1  4  1  0  0  0  0
  4  5  1  0  0  0  0
  4  6  1  0  0  0  0
  4  7  1  0  0  0  0
  7  8  1  0  0  0  0
  7  9  1  0  0  0  0
  7 10  1  0  0  0  0
 10 11  1  0  0  0  0
 10 12  1  0  0  0  0
 10 13  1  0  0  0  0
M  END
> <VConfSearch Rank>
169

> <Conf_Id>
0

> <Delta U+W>
0.000

> <U+W>
-58.332

> <U>
8.390

> <W>
-66.722

> <W(PB)>
-68.455

> <W(SA)>
1.733

> <Valence>
6.333

> <Coulomb>
1.215

> <VdW>
0.842

> <VdW6>
-3.344

> <VdW12>
4.186

> <Bond>
0.091

> <Angle>
2.713

> <Pdih>
3.529

> <Idih>
0.000

> <Tether>
0.000

$$$$
VeraChem MOL file


 13 12  0  0  0  0  0  0  0  0999 V2000     
   18.4870   18.2256   20.5909 C   0  0  0  0  0  0  0  0  0  0  0  0
   18.8591   17.4238   19.7579 O   0  5  0  0  0  0  0  0  0  0  0  0
   17.4698   18.8809   20.4841 O   0  0  0  0  0  0  0  0  0  0  0  0
   19.3531   18.4346   21.8285 C   0  0  0  0  0  0  0  0  0  0  0  0
   19.8391   17.4814   22.0699 H   0  0  0  0  0  0  0  0  0  0  0  0
   18.6934   18.6831   22.6688 H   0  0  0  0  0  0  0  0  0  0  0  0
   20.4173   19.5428   21.6411 C   0  0  0  0  0  0  0  0  0  0  0  0
   21.0657   19.2882   20.7910 H   0  0  0  0  0  0  0  0  0  0  0  0
   19.9198   20.4900   21.3901 H   0  0  0  0  0  0  0  0  0  0  0  0
   21.2755   19.7292   22.9084 C   0  0  0  0  0  0  0  0  0  0  0  0
   22.0235   20.5182   22.7563 H   0  0  0  0  0  0  0  0  0  0  0  0
   20.6523   20.0137   23.7664 H   0  0  0  0  0  0  0  0  0  0  0  0
   21.8070   18.8027   23.1626 H   0  0  0  0  0  0  0  0  0  0  0  0
  1  2  1  0  0  0  0
  1  3  2  0  0  0  0
  1  4  1  0  0  0  0
  4  5  1  0  0  0  0
  4  6  1  0  0  0  0
  4  7  1  0  0  0  0
  7  8  1  0  0  0  0
  7  9  1  0  0  0  0
  7 10  1  0  0  0  0
 10 11  1  0  0  0  0
 10 12  1  0  0  0  0
 10 13  1  0  0  0  0
M  END
> <VConfSearch Rank>
170

> <Conf_Id>
1

> <Delta U+W>
-1.339

> <U+W>
-59.672

> <U>
7.389

> <W>
-67.061

> <W(PB)>
-68.767

> <W(SA)>
1.707

> <Valence>
5.822

> <Coulomb>
1.255

> <VdW>
0.312

> <VdW6>
-3.061

> <VdW12>
3.372

> <Bond>
0.059

> <Angle>
2.241

> <Pdih>
3.522

> <Idih>
0.000

> <Tether>
0.000

$$$$
VeraChem MOL file


 13 12  0  0  0  0  0  0  0  0999 V2000     
   21.3900   17.8432   21.4082 C   0  0  0  0  0  0  0  0  0  0  0  0
   22.2219   17.5014   22.2250 O   0  5  0  0  0  0  0  0  0  0  0  0
   20.9132   17.0902   20.5827 O   0  0  0  0  0  0  0  0  0  0  0  0
   20.9491   19.3048   21.3976 C   0  0  0  0  0  0  0  0  0  0  0  0
   20.4653   19.5190   20.4367 H   0  0  0  0  0  0  0  0  0  0  0  0
   21.8556   19.9202   21.4398 H   0  0  0  0  0  0  0  0  0  0  0  0
   20.0081   19.6923   22.5671 C   0  0  0  0  0  0  0  0  0  0  0  0
   20.4851   19.4356   23.5234 H   0  0  0  0  0  0  0  0  0  0  0  0
   19.8649   20.7815   22.5682 H   0  0  0  0  0  0  0  0  0  0  0  0
   18.6312   19.0032   22.4701 C   0  0  0  0  0  0  0  0  0  0  0  0
   18.7329   17.9106   22.5110 H   0  0  0  0  0  0  0  0  0  0  0  0
   17.9839   19.3137   23.3006 H   0  0  0  0  0  0  0  0  0  0  0  0
   18.1270   19.2644   21.5305 H   0  0  0  0  0  0  0  0  0  0  0  0
  1  2  1  0  0  0  0
  1  3  2  0  0  0  0
  1  4  1  0  0  0  0
  4  5  1  0  0  0  0
  4  6  1  0  0  0  0
  4  7  1  0  0  0  0
  7  8  1  0  0  0  0
  7  9  1  0  0  0  0
  7 10  1  0  0  0  0
 10 11  1  0  0  0  0
 10 12  1  0  0  0  0
 10 13  1  0  0  0  0
M  END
> <VConfSearch Rank>
171

> <Conf_Id>
4

> <Delta U+W>
0.281

> <U+W>
-58.051

> <U>
9.781

> <W>
-67.832

> <W(PB)>
-69.535

> <W(SA)>
1.703

> <Valence>
6.123

> <Coulomb>
3.449

> <VdW>
0.209

> <VdW6>
-3.762

> <VdW12>
3.972

> <Bond>
0.078

> <Angle>
2.428

> <Pdih>
3.616

> <Idih>
0.002

> <Tether>
0.000

$$$$
VeraChem MOL file


 13 12  0  0  0  0  0  0  0  0999 V2000     
   21.4426   20.1699   21.9019 C   0  0  0  0  0  0  0  0  0  0  0  0
   22.2511   19.9549   22.7827 O   0  5  0  0  0  0  0  0  0  0  0  0
   21.7504   20.5373   20.7855 O   0  0  0  0  0  0  0  0  0  0  0  0
   19.9591   20.0051   22.2225 C   0  0  0  0  0  0  0  0  0  0  0  0
   19.4441   20.9018   21.8578 H   0  0  0  0  0  0  0  0  0  0  0  0
   19.8347   19.9896   23.3123 H   0  0  0  0  0  0  0  0  0  0  0  0
   19.3098   18.7459   21.5931 C   0  0  0  0  0  0  0  0  0  0  0  0
   18.2228   18.7867   21.7461 H   0  0  0  0  0  0  0  0  0  0  0  0
   19.4761   18.7505   20.5067 H   0  0  0  0  0  0  0  0  0  0  0  0
   19.8550   17.4356   22.1980 C   0  0  0  0  0  0  0  0  0  0  0  0
   19.6790   17.4004   23.2811 H   0  0  0  0  0  0  0  0  0  0  0  0
   19.3614   16.5658   21.7453 H   0  0  0  0  0  0  0  0  0  0  0  0
   20.9350   17.3400   22.0241 H   0  0  0  0  0  0  0  0  0  0  0  0
  1  2  1  0  0  0  0
  1  3  2  0  0  0  0
  1  4  1  0  0  0  0
  4  5  1  0  0  0  0
  4  6  1  0  0  0  0
  4  7  1  0  0  0  0
  7  8  1  0  0  0  0
  7  9  1  0  0  0  0
  7 10  1  0  0  0  0
 10 11  1  0  0  0  0
 10 12  1  0  0  0  0
 10 13  1  0  0  0  0
M  END
> <VConfSearch Rank>
172

> <Conf_Id>
36

> <Delta U+W>
0.272

> <U+W>
-58.060

> <U>
9.781

> <W>
-67.841

> <W(PB)>
-69.537

> <W(SA)>
1.696

> <Valence>
6.123

> <Coulomb>
3.449

> <VdW>
0.209

> <VdW6>
-3.762

> <VdW12>
3.972

> <Bond>
0.078

> <Angle>
2.428

> <Pdih>
3.616

> <Idih>
0.002

> <Tether>
0.000

$$$$
VeraChem MOL file


 13 12  0  0  0  0  0  0  0  0999 V2000     
   21.8535   19.8275   21.1051 C   0  0  0  0  0  0  0  0  0  0  0  0
   22.4217   20.0351   22.1593 O   0  5  0  0  0  0  0  0  0  0  0  0
   22.3472   20.0846   20.0258 O   0  0  0  0  0  0  0  0  0  0  0  0
   20.4513   19.2154   21.1044 C   0  0  0  0  0  0  0  0  0  0  0  0
   20.4956   18.2954   20.5095 H   0  0  0  0  0  0  0  0  0  0  0  0
   19.7909   19.9099   20.5716 H   0  0  0  0  0  0  0  0  0  0  0  0
   19.8615   18.9040   22.5049 C   0  0  0  0  0  0  0  0  0  0  0  0
   20.5263   18.2103   23.0382 H   0  0  0  0  0  0  0  0  0  0  0  0
   19.8208   19.8267   23.1005 H   0  0  0  0  0  0  0  0  0  0  0  0
   18.4498   18.2917   22.4049 C   0  0  0  0  0  0  0  0  0  0  0  0
   18.4688   17.3507   21.8396 H   0  0  0  0  0  0  0  0  0  0  0  0
   18.0494   18.0784   23.4047 H   0  0  0  0  0  0  0  0  0  0  0  0
   17.7576   18.9800   21.9023 H   0  0  0  0  0  0  0  0  0  0  0  0
  1  2  1  0  0  0  0
  1  3  2  0  0  0  0
  1  4  1  0  0  0  0
  4  5  1  0  0  0  0
  4  6  1  0  0  0  0
  4  7  1  0  0  0  0
  7  8  1  0  0  0  0
  7  9  1  0  0  0  0
  7 10  1  0  0  0  0
 10 11  1  0  0  0  0
 10 12  1  0  0  0  0
 10 13  1  0  0  0  0
M  END
> <VConfSearch Rank>
173

> <Conf_Id>
0

> <Delta U+W>
0.000

> <U+W>
-58.332

> <U>
8.390

> <W>
-66.722

> <W(PB)>
-68.455

> <W(SA)>
1.733

> <Valence>
6.333

> <Coulomb>
1.215

> <VdW>
0.842

> <VdW6>
-3.344

> <VdW12>
4.186

> <Bond>
0.091

> <Angle>
2.713

> <Pdih>
3.529

> <Idih>
0.000

> <Tether>
0.000

$$$$
VeraChem MOL file


 13 12  0  0  0  0  0  0  0  0999 V2000     
   20.9511   18.5306   20.0219 C   0  0  0  0  0  0  0  0  0  0  0  0
   21.3537   17.3880   19.9343 O   0  5  0  0  0  0  0  0  0  0  0  0
   21.4131   19.4556   19.3845 O   0  0  0  0  0  0  0  0  0  0  0  0
   19.8171   18.8229   20.9987 C   0  0  0  0  0  0  0  0  0  0  0  0
   19.1682   17.9398   21.0427 H   0  0  0  0  0  0  0  0  0  0  0  0
   19.2172   19.6448   20.5893 H   0  0  0  0  0  0  0  0  0  0  0  0
   20.3199   19.1856   22.4170 C   0  0  0  0  0  0  0  0  0  0  0  0
   20.9274   18.3598   22.8128 H   0  0  0  0  0  0  0  0  0  0  0  0
   20.9763   20.0652   22.3594 H   0  0  0  0  0  0  0  0  0  0  0  0
   19.1507   19.4751   23.3795 C   0  0  0  0  0  0  0  0  0  0  0  0
   19.5266   19.7301   24.3790 H   0  0  0  0  0  0  0  0  0  0  0  0
   18.5453   20.3176   23.0200 H   0  0  0  0  0  0  0  0  0  0  0  0
   18.4960   18.5991   23.4769 H   0  0  0  0  0  0  0  0  0  0  0  0
  1  2  1  0  0  0  0
  1  3  2  0  0  0  0
  1  4  1  0  0  0  0
  4  5  1  0  0  0  0
  4  6  1  0  0  0  0
  4  7  1  0  0  0  0
  7  8  1  0  0  0  0
  7  9  1  0  0  0  0
  7 10  1  0  0  0  0
 10 11  1  0  0  0  0
 10 12  1  0  0  0  0
 10 13  1  0  0  0  0
M  END
> <VConfSearch Rank>
174

> <Conf_Id>
1

> <Delta U+W>
-1.339

> <U+W>
-59.672

> <U>
7.389

> <W>
-67.061

> <W(PB)>
-68.767

> <W(SA)>
1.707

> <Valence>
5.822

> <Coulomb>
1.255

> <VdW>
0.312

> <VdW6>
-3.061

> <VdW12>
3.372

> <Bond>
0.059

> <Angle>
2.241

> <Pdih>
3.522

> <Idih>
0.000

> <Tether>
0.000

$$$$
VeraChem MOL file


 13 12  0  0  0  0  0  0  0  0999 V2000     
   19.4893   19.8358   23.4297 C   0  0  0  0  0  0  0  0  0  0  0  0
   19.9931   19.5451   24.4964 O   0  5  0  0  0  0  0  0  0  0  0  0
   19.1894   20.9711   23.1181 O   0  0  0  0  0  0  0  0  0  0  0  0
   19.1855   18.7088   22.4457 C   0  0  0  0  0  0  0  0  0  0  0  0
   18.4649   19.0746   21.7040 H   0  0  0  0  0  0  0  0  0  0  0  0
   18.6847   17.9108   23.0069 H   0  0  0  0  0  0  0  0  0  0  0  0
   20.4368   18.1322   21.7351 C   0  0  0  0  0  0  0  0  0  0  0  0
   21.1694   17.8067   22.4870 H   0  0  0  0  0  0  0  0  0  0  0  0
   20.1480   17.2369   21.1677 H   0  0  0  0  0  0  0  0  0  0  0  0
   21.0912   19.1475   20.7756 C   0  0  0  0  0  0  0  0  0  0  0  0
   21.4333   20.0391   21.3177 H   0  0  0  0  0  0  0  0  0  0  0  0
   21.9607   18.7019   20.2751 H   0  0  0  0  0  0  0  0  0  0  0  0
   20.3820   19.4695   20.0018 H   0  0  0  0  0  0  0  0  0  0  0  0
  1  2  1  0  0  0  0
  1  3  2  0  0  0  0
  1  4  1  0  0  0  0
  4  5  1  0  0  0  0
  4  6  1  0  0  0  0
  4  7  1  0  0  0  0
  7  8  1  0  0  0  0
  7  9  1  0  0  0  0
  7 10  1  0  0  0  0
 10 11  1  0  0  0  0
 10 12  1  0  0  0  0
 10 13  1  0  0  0  0
M  END
> <VConfSearch Rank>
175

> <Conf_Id>
4

> <Delta U+W>
0.281

> <U+W>
-58.051

> <U>
9.781

> <W>
-67.832

> <W(PB)>
-69.535

> <W(SA)>
1.703

> <Valence>
6.123

> <Coulomb>
3.449

> <VdW>
0.209

> <VdW6>
-3.762

> <VdW12>
3.972

> <Bond>
0.078

> <Angle>
2.428

> <Pdih>
3.616

> <Idih>
0.002

> <Tether>
0.000

$$$$
VeraChem MOL file


 13 12  0  0  0  0  0  0  0  0999 V2000     
   20.1267   17.6791   23.2415 C   0  0  0  0  0  0  0  0  0  0  0  0
   20.0442   18.1787   24.3458 O   0  5  0  0  0  0  0  0  0  0  0  0
   19.5809   16.6378   22.9351 O   0  0  0  0  0  0  0  0  0  0  0  0
   20.9901   18.3755   22.1925 C   0  0  0  0  0  0  0  0  0  0  0  0
   21.6376   17.6131   21.7433 H   0  0  0  0  0  0  0  0  0  0  0  0
   21.6486   19.0920   22.6988 H   0  0  0  0  0  0  0  0  0  0  0  0
   20.1826   19.0882   21.0775 C   0  0  0  0  0  0  0  0  0  0  0  0
   20.8735   19.4276   20.2937 H   0  0  0  0  0  0  0  0  0  0  0  0
   19.4966   18.3713   20.6048 H   0  0  0  0  0  0  0  0  0  0  0  0
   19.3869   20.2992   21.6069 C   0  0  0  0  0  0  0  0  0  0  0  0
   20.0567   21.0393   22.0641 H   0  0  0  0  0  0  0  0  0  0  0  0
   18.8433   20.7919   20.7902 H   0  0  0  0  0  0  0  0  0  0  0  0
   18.6532   19.9895   22.3629 H   0  0  0  0  0  0  0  0  0  0  0  0
  1  2  1  0  0  0  0
  1  3  2  0  0  0  0
  1  4  1  0  0  0  0
  4  5  1  0  0  0  0
  4  6  1  0  0  0  0
  4  7  1  0  0  0  0
  7  8  1  0  0  0  0
  7  9  1  0  0  0  0
  7 10  1  0  0  0  0
 10 11  1  0  0  0  0
 10 12  1  0  0  0  0
 10 13  1  0  0  0  0
M  END
> <VConfSearch Rank>
176

> <Conf_Id>
36

> <Delta U+W>
0.272

> <U+W>
-58.060

> <U>
9.781

> <W>
-67.841

> <W(PB)>
-69.537

> <W(SA)>
1.696

> <Valence>
6.123

> <Coulomb>
3.449

> <VdW>
0.209

> <VdW6>
-3.762

> <VdW12>
3.972

> <Bond>
0.078

> <Angle>
2.428

> <Pdih>
3.616

> <Idih>
0.002

> <Tether>
0.000

$$$$
VeraChem MOL file


 13 12  0  0  0  0  0  0  0  0999 V2000     
   19.3284   20.9089   22.4723 C   0  0  0  0  0  0  0  0  0  0  0  0
   19.0147   21.3989   21.4051 O   0  5  0  0  0  0  0  0  0  0  0  0
   19.2095   21.4947   23.5295 O   0  0  0  0  0  0  0  0  0  0  0  0
   19.9024   19.4915   22.5192 C   0  0  0  0  0  0  0  0  0  0  0  0
   19.2583   18.8988   23.1796 H   0  0  0  0  0  0  0  0  0  0  0  0
   20.8856   19.5519   23.0008 H   0  0  0  0  0  0  0  0  0  0  0  0
   20.0358   18.7829   21.1459 C   0  0  0  0  0  0  0  0  0  0  0  0
   19.0499   18.7261   20.6637 H   0  0  0  0  0  0  0  0  0  0  0  0
   20.6792   19.3800   20.4846 H   0  0  0  0  0  0  0  0  0  0  0  0
   20.6214   17.3639   21.2918 C   0  0  0  0  0  0  0  0  0  0  0  0
   19.9792   16.7369   21.9242 H   0  0  0  0  0  0  0  0  0  0  0  0
   20.7083   16.8789   20.3107 H   0  0  0  0  0  0  0  0  0  0  0  0
   21.6216   17.3961   21.7437 H   0  0  0  0  0  0  0  0  0  0  0  0
  1  2  1  0  0  0  0
  1  3  2  0  0  0  0
  1  4  1  0  0  0  0
  4  5  1  0  0  0  0
  4  6  1  0  0  0  0
  4  7  1  0  0  0  0
  7  8  1  0  0  0  0
  7  9  1  0  0  0  0
  7 10  1  0  0  0  0
 10 11  1  0  0  0  0
 10 12  1  0  0  0  0
 10 13  1  0  0  0  0
M  END
> <VConfSearch Rank>
177

> <Conf_Id>
0

> <Delta U+W>
0.000

> <U+W>
-58.332

> <U>
8.390

> <W>
-66.722

> <W(PB)>
-68.455

> <W(SA)>
1.733

> <Valence>
6.333

> <Coulomb>
1.215

> <VdW>
0.842

> <VdW6>
-3.344

> <VdW12>
4.186

> <Bond>
0.091

> <Angle>
2.713

> <Pdih>
3.529

> <Idih>
0.000

> <Tether>
0.000

$$$$
VeraChem MOL file


 13 12  0  0  0  0  0  0  0  0999 V2000     
   20.3810   19.1476   19.7595 C   0  0  0  0  0  0  0  0  0  0  0  0
   20.2960   18.1033   19.1450 O   0  5  0  0  0  0  0  0  0  0  0  0
   21.0539   20.0896   19.3918 O   0  0  0  0  0  0  0  0  0  0  0  0
   19.6168   19.2760   21.0729 C   0  0  0  0  0  0  0  0  0  0  0  0
   18.6953   18.6870   20.9907 H   0  0  0  0  0  0  0  0  0  0  0  0
   19.3203   20.3250   21.1942 H   0  0  0  0  0  0  0  0  0  0  0  0
   20.4394   18.8100   22.2985 C   0  0  0  0  0  0  0  0  0  0  0  0
   20.7391   17.7615   22.1615 H   0  0  0  0  0  0  0  0  0  0  0  0
   21.3642   19.4000   22.3651 H   0  0  0  0  0  0  0  0  0  0  0  0
   19.6397   18.9522   23.6091 C   0  0  0  0  0  0  0  0  0  0  0  0
   20.2388   18.6172   24.4659 H   0  0  0  0  0  0  0  0  0  0  0  0
   19.3540   19.9979   23.7834 H   0  0  0  0  0  0  0  0  0  0  0  0
   18.7242   18.3469   23.5783 H   0  0  0  0  0  0  0  0  0  0  0  0
  1  2  1  0  0  0  0
  1  3  2  0  0  0  0
  1  4  1  0  0  0  0
  4  5  1  0  0  0  0
  4  6  1  0  0  0  0
  4  7  1  0  0  0  0
  7  8  1  0  0  0  0
  7  9  1  0  0  0  0
  7 10  1  0  0  0  0
 10 11  1  0  0  0  0
 10 12  1  0  0  0  0
 10 13  1  0  0  0  0
M  END
> <VConfSearch Rank>
178

> <Conf_Id>
1

> <Delta U+W>
-1.339

> <U+W>
-59.672

> <U>
7.389

> <W>
-67.061

> <W(PB)>
-68.767

> <W(SA)>
1.707

> <Valence>
5.822

> <Coulomb>
1.255

> <VdW>
0.312

> <VdW6>
-3.061

> <VdW12>
3.372

> <Bond>
0.059

> <Angle>
2.241

> <Pdih>
3.522

> <Idih>
0.000

> <Tether>
0.000

$$$$
VeraChem MOL file


 13 12  0  0  0  0  0  0  0  0999 V2000     
   20.9841   20.5112   21.6959 C   0  0  0  0  0  0  0  0  0  0  0  0
   20.2951   21.4418   21.3278 O   0  5  0  0  0  0  0  0  0  0  0  0
   21.9009   20.6277   22.4844 O   0  0  0  0  0  0  0  0  0  0  0  0
   20.7036   19.1306   21.1078 C   0  0  0  0  0  0  0  0  0  0  0  0
   21.5784   18.4913   21.2790 H   0  0  0  0  0  0  0  0  0  0  0  0
   20.6070   19.2510   20.0222 H   0  0  0  0  0  0  0  0  0  0  0  0
   19.4276   18.4501   21.6666 C   0  0  0  0  0  0  0  0  0  0  0  0
   18.5646   19.1161   21.5273 H   0  0  0  0  0  0  0  0  0  0  0  0
   19.2213   17.5405   21.0861 H   0  0  0  0  0  0  0  0  0  0  0  0
   19.5623   18.0767   23.1574 C   0  0  0  0  0  0  0  0  0  0  0  0
   19.7256   18.9699   23.7748 H   0  0  0  0  0  0  0  0  0  0  0  0
   18.6512   17.5801   23.5156 H   0  0  0  0  0  0  0  0  0  0  0  0
   20.4065   17.3929   23.3159 H   0  0  0  0  0  0  0  0  0  0  0  0
  1  2  1  0  0  0  0
  1  3  2  0  0  0  0
  1  4  1  0  0  0  0
  4  5  1  0  0  0  0
  4  6  1  0  0  0  0
  4  7  1  0  0  0  0
  7  8  1  0  0  0  0
  7  9  1  0  0  0  0
  7 10  1  0  0  0  0
 10 11  1  0  0  0  0
 10 12  1  0  0  0  0
 10 13  1  0  0  0  0
M  END
> <VConfSearch Rank>
179

> <Conf_Id>
4

> <Delta U+W>
0.281

> <U+W>
-58.051

> <U>
9.781

> <W>
-67.832

> <W(PB)>
-69.535

> <W(SA)>
1.703

> <Valence>
6.123

> <Coulomb>
3.449

> <VdW>
0.209

> <VdW6>
-3.762

> <VdW12>
3.972

> <Bond>
0.078

> <Angle>
2.428

> <Pdih>
3.616

> <Idih>
0.002

> <Tether>
0.000

$$$$
VeraChem MOL file


 13 12  0  0  0  0  0  0  0  0999 V2000     
   21.5696   18.0519   21.4852 C   0  0  0  0  0  0  0  0  0  0  0  0
   22.2344   17.7646   22.4606 O   0  5  0  0  0  0  0  0  0  0  0  0
   21.4256   17.3130   20.5316 O   0  0  0  0  0  0  0  0  0  0  0  0
   20.9089   19.4274   21.4368 C   0  0  0  0  0  0  0  0  0  0  0  0
   21.1356   19.8649   20.4572 H   0  0  0  0  0  0  0  0  0  0  0  0
   21.3820   20.0712   22.1884 H   0  0  0  0  0  0  0  0  0  0  0  0
   19.3731   19.4013   21.6467 C   0  0  0  0  0  0  0  0  0  0  0  0
   18.9656   20.4019   21.4473 H   0  0  0  0  0  0  0  0  0  0  0  0
   18.9134   18.7217   20.9155 H   0  0  0  0  0  0  0  0  0  0  0  0
   18.9797   18.9726   23.0755 C   0  0  0  0  0  0  0  0  0  0  0  0
   19.4109   19.6525   23.8219 H   0  0  0  0  0  0  0  0  0  0  0  0
   17.8886   18.9838   23.1961 H   0  0  0  0  0  0  0  0  0  0  0  0
   19.3337   17.9564   23.2942 H   0  0  0  0  0  0  0  0  0  0  0  0
  1  2  1  0  0  0  0
  1  3  2  0  0  0  0
  1  4  1  0  0  0  0
  4  5  1  0  0  0  0
  4  6  1  0  0  0  0
  4  7  1  0  0  0  0
  7  8  1  0  0  0  0
  7  9  1  0  0  0  0
  7 10  1  0  0  0  0
 10 11  1  0  0  0  0
 10 12  1  0  0  0  0
 10 13  1  0  0  0  0
M  END
> <VConfSearch Rank>
180

> <Conf_Id>
36

> <Delta U+W>
0.272

> <U+W>
-58.060

> <U>
9.781

> <W>
-67.841

> <W(PB)>
-69.537

> <W(SA)>
1.696

> <Valence>
6.123

> <Coulomb>
3.449

> <VdW>
0.209

> <VdW6>
-3.762

> <VdW12>
3.972

> <Bond>
0.078

> <Angle>
2.428

> <Pdih>
3.616

> <Idih>
0.002

> <Tether>
0.000

$$$$
VeraChem MOL file


 13 12  0  0  0  0  0  0  0  0999 V2000     
   21.8503   19.9065   22.4429 C   0  0  0  0  0  0  0  0  0  0  0  0
   22.6011   19.4862   21.5845 O   0  5  0  0  0  0  0  0  0  0  0  0
   22.2158   20.6377   23.3410 O   0  0  0  0  0  0  0  0  0  0  0  0
   20.3717   19.5144   22.4187 C   0  0  0  0  0  0  0  0  0  0  0  0
   19.7874   20.4414   22.3778 H   0  0  0  0  0  0  0  0  0  0  0  0
   20.1441   19.0345   23.3780 H   0  0  0  0  0  0  0  0  0  0  0  0
   19.9510   18.5799   21.2544 C   0  0  0  0  0  0  0  0  0  0  0  0
   20.1826   19.0613   20.2940 H   0  0  0  0  0  0  0  0  0  0  0  0
   20.5398   17.6528   21.2954 H   0  0  0  0  0  0  0  0  0  0  0  0
   18.4481   18.2396   21.3118 C   0  0  0  0  0  0  0  0  0  0  0  0
   17.8364   19.1486   21.2411 H   0  0  0  0  0  0  0  0  0  0  0  0
   18.1696   17.5782   20.4810 H   0  0  0  0  0  0  0  0  0  0  0  0
   18.1965   17.7288   22.2506 H   0  0  0  0  0  0  0  0  0  0  0  0
  1  2  1  0  0  0  0
  1  3  2  0  0  0  0
  1  4  1  0  0  0  0
  4  5  1  0  0  0  0
  4  6  1  0  0  0  0
  4  7  1  0  0  0  0
  7  8  1  0  0  0  0
  7  9  1  0  0  0  0
  7 10  1  0  0  0  0
 10 11  1  0  0  0  0
 10 12  1  0  0  0  0
 10 13  1  0  0  0  0
M  END
> <VConfSearch Rank>
181

> <Conf_Id>
0

> <Delta U+W>
0.000

> <U+W>
-58.332

> <U>
8.390

> <W>
-66.722

> <W(PB)>
-68.455

> <W(SA)>
1.733

> <Valence>
6.333

> <Coulomb>
1.215

> <VdW>
0.842

> <VdW6>
-3.344

> <VdW12>
4.186

> <Bond>
0.091

> <Angle>
2.713

> <Pdih>
3.529

> <Idih>
0.000

> <Tether>
0.000

$$$$
VeraChem MOL file


 13 12  0  0  0  0  0  0  0  0999 V2000     
   19.1010   19.8602   20.1007 C   0  0  0  0  0  0  0  0  0  0  0  0
   19.6908   20.7897   19.5874 O   0  5  0  0  0  0  0  0  0  0  0  0
   17.9088   19.6677   19.9701 O   0  0  0  0  0  0  0  0  0  0  0  0
   19.8966   18.8934   20.9712 C   0  0  0  0  0  0  0  0  0  0  0  0
   20.9126   18.8242   20.5638 H   0  0  0  0  0  0  0  0  0  0  0  0
   19.4431   17.8989   20.8794 H   0  0  0  0  0  0  0  0  0  0  0  0
   19.9469   19.3206   22.4581 C   0  0  0  0  0  0  0  0  0  0  0  0
   20.3937   20.3216   22.5369 H   0  0  0  0  0  0  0  0  0  0  0  0
   18.9239   19.3961   22.8525 H   0  0  0  0  0  0  0  0  0  0  0  0
   20.7576   18.3239   23.3105 C   0  0  0  0  0  0  0  0  0  0  0  0
   20.7818   18.6434   24.3605 H   0  0  0  0  0  0  0  0  0  0  0  0
   20.3124   17.3209   23.2715 H   0  0  0  0  0  0  0  0  0  0  0  0
   21.7935   18.2536   22.9535 H   0  0  0  0  0  0  0  0  0  0  0  0
  1  2  1  0  0  0  0
  1  3  2  0  0  0  0
  1  4  1  0  0  0  0
  4  5  1  0  0  0  0
  4  6  1  0  0  0  0
  4  7  1  0  0  0  0
  7  8  1  0  0  0  0
  7  9  1  0  0  0  0
  7 10  1  0  0  0  0
 10 11  1  0  0  0  0
 10 12  1  0  0  0  0
 10 13  1  0  0  0  0
M  END
> <VConfSearch Rank>
182

> <Conf_Id>
1

> <Delta U+W>
-1.339

> <U+W>
-59.672

> <U>
7.389

> <W>
-67.061

> <W(PB)>
-68.767

> <W(SA)>
1.707

> <Valence>
5.822

> <Coulomb>
1.255

> <VdW>
0.312

> <VdW6>
-3.061

> <VdW12>
3.372

> <Bond>
0.059

> <Angle>
2.241

> <Pdih>
3.522

> <Idih>
0.000

> <Tether>
0.000

$$$$
VeraChem MOL file


 13 12  0  0  0  0  0  0  0  0999 V2000     
   19.0425   19.4264   23.3490 C   0  0  0  0  0  0  0  0  0  0  0  0
   18.5394   18.5077   23.9646 O   0  5  0  0  0  0  0  0  0  0  0  0
   19.4571   20.4388   23.8773 O   0  0  0  0  0  0  0  0  0  0  0  0
   19.1241   19.3155   21.8286 C   0  0  0  0  0  0  0  0  0  0  0  0
   19.2925   20.3161   21.4118 H   0  0  0  0  0  0  0  0  0  0  0  0
   18.1414   18.9851   21.4715 H   0  0  0  0  0  0  0  0  0  0  0  0
   20.2131   18.3357   21.3213 C   0  0  0  0  0  0  0  0  0  0  0  0
   20.0596   17.3473   21.7769 H   0  0  0  0  0  0  0  0  0  0  0  0
   20.1015   18.2039   20.2364 H   0  0  0  0  0  0  0  0  0  0  0  0
   21.6418   18.8327   21.6241 C   0  0  0  0  0  0  0  0  0  0  0  0
   21.8037   18.9336   22.7055 H   0  0  0  0  0  0  0  0  0  0  0  0
   22.3874   18.1271   21.2352 H   0  0  0  0  0  0  0  0  0  0  0  0
   21.8241   19.8102   21.1588 H   0  0  0  0  0  0  0  0  0  0  0  0
  1  2  1  0  0  0  0
  1  3  2  0  0  0  0
  1  4  1  0  0  0  0
  4  5  1  0  0  0  0
  4  6  1  0  0  0  0
  4  7  1  0  0  0  0
  7  8  1  0  0  0  0
  7  9  1  0  0  0  0
  7 10  1  0  0  0  0
 10 11  1  0  0  0  0
 10 12  1  0  0  0  0
 10 13  1  0  0  0  0
M  END
> <VConfSearch Rank>
183

> <Conf_Id>
4

> <Delta U+W>
0.281

> <U+W>
-58.051

> <U>
9.781

> <W>
-67.832

> <W(PB)>
-69.535

> <W(SA)>
1.703

> <Valence>
6.123

> <Coulomb>
3.449

> <VdW>
0.209

> <VdW6>
-3.762

> <VdW12>
3.972

> <Bond>
0.078

> <Angle>
2.428

> <Pdih>
3.616

> <Idih>
0.002

> <Tether>
0.000

$$$$
VeraChem MOL file


 13 12  0  0  0  0  0  0  0  0999 V2000     
   20.2039   19.4309   23.7256 C   0  0  0  0  0  0  0  0  0  0  0  0
   19.1664   19.9701   24.0555 O   0  5  0  0  0  0  0  0  0  0  0  0
   20.8269   18.6788   24.4483 O   0  0  0  0  0  0  0  0  0  0  0  0
   20.7755   19.7407   22.3443 C   0  0  0  0  0  0  0  0  0  0  0  0
   21.8378   19.9785   22.4758 H   0  0  0  0  0  0  0  0  0  0  0  0
   20.2931   20.6477   21.9597 H   0  0  0  0  0  0  0  0  0  0  0  0
   20.6288   18.5839   21.3227 C   0  0  0  0  0  0  0  0  0  0  0  0
   21.1947   18.8320   20.4143 H   0  0  0  0  0  0  0  0  0  0  0  0
   21.0787   17.6699   21.7351 H   0  0  0  0  0  0  0  0  0  0  0  0
   19.1581   18.3150   20.9424 C   0  0  0  0  0  0  0  0  0  0  0  0
   18.6953   19.2104   20.5071 H   0  0  0  0  0  0  0  0  0  0  0  0
   19.0912   17.5052   20.2043 H   0  0  0  0  0  0  0  0  0  0  0  0
   18.5706   18.0201   21.8221 H   0  0  0  0  0  0  0  0  0  0  0  0
  1  2  1  0  0  0  0
  1  3  2  0  0  0  0
  1  4  1  0  0  0  0
  4  5  1  0  0  0  0
  4  6  1  0  0  0  0
  4  7  1  0  0  0  0
  7  8  1  0  0  0  0
  7  9  1  0  0  0  0
  7 10  1  0  0  0  0
 10 11  1  0  0  0  0
 10 12  1  0  0  0  0
 10 13  1  0  0  0  0
M  END
> <VConfSearch Rank>
184

> <Conf_Id>
36

> <Delta U+W>
0.272

> <U+W>
-58.060

> <U>
9.781

> <W>
-67.841

> <W(PB)>
-69.537

> <W(SA)>
1.696

> <Valence>
6.123

> <Coulomb>
3.449

> <VdW>
0.209

> <VdW6>
-3.762

> <VdW12>
3.972

> <Bond>
0.078

> <Angle>
2.428

> <Pdih>
3.616

> <Idih>
0.002

> <Tether>
0.000

$$$$
VeraChem MOL file


 13 12  0  0  0  0  0  0  0  0999 V2000     
   18.5578   20.3593   22.5667 C   0  0  0  0  0  0  0  0  0  0  0  0
   18.0872   20.7626   21.5211 O   0  5  0  0  0  0  0  0  0  0  0  0
   18.1739   20.7385   23.6546 O   0  0  0  0  0  0  0  0  0  0  0  0
   19.6866   19.3267   22.5446 C   0  0  0  0  0  0  0  0  0  0  0  0
   19.3471   18.4577   23.1207 H   0  0  0  0  0  0  0  0  0  0  0  0
   20.5362   19.7584   23.0869 H   0  0  0  0  0  0  0  0  0  0  0  0
   20.1437   18.8721   21.1338 C   0  0  0  0  0  0  0  0  0  0  0  0
   19.2902   18.4425   20.5910 H   0  0  0  0  0  0  0  0  0  0  0  0
   20.4807   19.7448   20.5571 H   0  0  0  0  0  0  0  0  0  0  0  0
   21.2815   17.8341   21.2109 C   0  0  0  0  0  0  0  0  0  0  0  0
   20.9591   16.9376   21.7567 H   0  0  0  0  0  0  0  0  0  0  0  0
   21.5912   17.5248   20.2041 H   0  0  0  0  0  0  0  0  0  0  0  0
   22.1591   18.2504   21.7226 H   0  0  0  0  0  0  0  0  0  0  0  0
  1  2  1  0  0  0  0
  1  3  2  0  0  0  0
  1  4  1  0  0  0  0
  4  5  1  0  0  0  0
  4  6  1  0  0  0  0
  4  7  1  0  0  0  0
  7  8  1  0  0  0  0
  7  9  1  0  0  0  0
  7 10  1  0  0  0  0
 10 11  1  0  0  0  0
 10 12  1  0  0  0  0
 10 13  1  0  0  0  0
M  END
> <VConfSearch Rank>
185

> <Conf_Id>
0

> <Delta U+W>
0.000

> <U+W>
-58.332

> <U>
8.390

> <W>
-66.722

> <W(PB)>
-68.455

> <W(SA)>
1.733

> <Valence>
6.333

> <Coulomb>
1.215

> <VdW>
0.842

> <VdW6>
-3.344

> <VdW12>
4.186

> <Bond>
0.091

> <Angle>
2.713

> <Pdih>
3.529

> <Idih>
0.000

> <Tether>
0.000

$$$$
VeraChem MOL file


 13 12  0  0  0  0  0  0  0  0999 V2000     
   19.7948   18.4517   19.8129 C   0  0  0  0  0  0  0  0  0  0  0  0
   20.2484   17.3614   19.5283 O   0  5  0  0  0  0  0  0  0  0  0  0
   19.6493   19.3490   19.0073 O   0  0  0  0  0  0  0  0  0  0  0  0
   19.4046   18.7143   21.2635 C   0  0  0  0  0  0  0  0  0  0  0  0
   19.0511   17.7713   21.6980 H   0  0  0  0  0  0  0  0  0  0  0  0
   18.5570   19.4103   21.2684 H   0  0  0  0  0  0  0  0  0  0  0  0
   20.5687   19.2866   22.1081 C   0  0  0  0  0  0  0  0  0  0  0  0
   21.4152   18.5860   22.0879 H   0  0  0  0  0  0  0  0  0  0  0  0
   20.9209   20.2254   21.6582 H   0  0  0  0  0  0  0  0  0  0  0  0
   20.1425   19.5407   23.5680 C   0  0  0  0  0  0  0  0  0  0  0  0
   20.9802   19.9459   24.1504 H   0  0  0  0  0  0  0  0  0  0  0  0
   19.3159   20.2618   23.6160 H   0  0  0  0  0  0  0  0  0  0  0  0
   19.8141   18.6099   24.0489 H   0  0  0  0  0  0  0  0  0  0  0  0
  1  2  1  0  0  0  0
  1  3  2  0  0  0  0
  1  4  1  0  0  0  0
  4  5  1  0  0  0  0
  4  6  1  0  0  0  0
  4  7  1  0  0  0  0
  7  8  1  0  0  0  0
  7  9  1  0  0  0  0
  7 10  1  0  0  0  0
 10 11  1  0  0  0  0
 10 12  1  0  0  0  0
 10 13  1  0  0  0  0
M  END
> <VConfSearch Rank>
186

> <Conf_Id>
1

> <Delta U+W>
-1.339

> <U+W>
-59.672

> <U>
7.389

> <W>
-67.061

> <W(PB)>
-68.767

> <W(SA)>
1.707

> <Valence>
5.822

> <Coulomb>
1.255

> <VdW>
0.312

> <VdW6>
-3.061

> <VdW12>
3.372

> <Bond>
0.059

> <Angle>
2.241

> <Pdih>
3.522

> <Idih>
0.000

> <Tether>
0.000

$$$$
VeraChem MOL file


 13 12  0  0  0  0  0  0  0  0999 V2000     
   19.6191   17.3015   21.5748 C   0  0  0  0  0  0  0  0  0  0  0  0
   19.8310   16.9536   20.4302 O   0  5  0  0  0  0  0  0  0  0  0  0
   19.7726   16.5735   22.5352 O   0  0  0  0  0  0  0  0  0  0  0  0
   19.0983   18.7167   21.8128 C   0  0  0  0  0  0  0  0  0  0  0  0
   18.6627   18.7664   22.8183 H   0  0  0  0  0  0  0  0  0  0  0  0
   18.2791   18.8872   21.1041 H   0  0  0  0  0  0  0  0  0  0  0  0
   20.1689   19.8244   21.6394 C   0  0  0  0  0  0  0  0  0  0  0  0
   20.6278   19.7398   20.6443 H   0  0  0  0  0  0  0  0  0  0  0  0
   19.6795   20.8072   21.6787 H   0  0  0  0  0  0  0  0  0  0  0  0
   21.2634   19.7628   22.7249 C   0  0  0  0  0  0  0  0  0  0  0  0
   21.8046   18.8081   22.6858 H   0  0  0  0  0  0  0  0  0  0  0  0
   21.9930   20.5710   22.5849 H   0  0  0  0  0  0  0  0  0  0  0  0
   20.8282   19.8679   23.7273 H   0  0  0  0  0  0  0  0  0  0  0  0
  1  2  1  0  0  0  0
  1  3  2  0  0  0  0
  1  4  1  0  0  0  0
  4  5  1  0  0  0  0
  4  6  1  0  0  0  0
  4  7  1  0  0  0  0
  7  8  1  0  0  0  0
  7  9  1  0  0  0  0
  7 10  1  0  0  0  0
 10 11  1  0  0  0  0
 10 12  1  0  0  0  0
 10 13  1  0  0  0  0
M  END
> <VConfSearch Rank>
187

> <Conf_Id>
4

> <Delta U+W>
0.281

> <U+W>
-58.051

> <U>
9.781

> <W>
-67.832

> <W(PB)>
-69.535

> <W(SA)>
1.703

> <Valence>
6.123

> <Coulomb>
3.449

> <VdW>
0.209

> <VdW6>
-3.762

> <VdW12>
3.972

> <Bond>
0.078

> <Angle>
2.428

> <Pdih>
3.616

> <Idih>
0.002

> <Tether>
0.000

$$$$
VeraChem MOL file


 13 12  0  0  0  0  0  0  0  0999 V2000     
   19.3251   17.6338   21.1002 C   0  0  0  0  0  0  0  0  0  0  0  0
   19.0254   18.0134   19.9858 O   0  5  0  0  0  0  0  0  0  0  0  0
   19.7333   16.5147   21.3392 O   0  0  0  0  0  0  0  0  0  0  0  0
   19.1463   18.6001   22.2686 C   0  0  0  0  0  0  0  0  0  0  0  0
   18.6163   18.0595   23.0618 H   0  0  0  0  0  0  0  0  0  0  0  0
   18.4896   19.4190   21.9500 H   0  0  0  0  0  0  0  0  0  0  0  0
   20.4744   19.1687   22.8308 C   0  0  0  0  0  0  0  0  0  0  0  0
   20.2648   19.7275   23.7531 H   0  0  0  0  0  0  0  0  0  0  0  0
   21.1409   18.3401   23.1083 H   0  0  0  0  0  0  0  0  0  0  0  0
   21.1891   20.0993   21.8292 C   0  0  0  0  0  0  0  0  0  0  0  0
   20.5480   20.9474   21.5553 H   0  0  0  0  0  0  0  0  0  0  0  0
   22.1138   20.4994   22.2649 H   0  0  0  0  0  0  0  0  0  0  0  0
   21.4541   19.5604   20.9098 H   0  0  0  0  0  0  0  0  0  0  0  0
  1  2  1  0  0  0  0
  1  3  2  0  0  0  0
  1  4  1  0  0  0  0
  4  5  1  0  0  0  0
  4  6  1  0  0  0  0
  4  7  1  0  0  0  0
  7  8  1  0  0  0  0
  7  9  1  0  0  0  0
  7 10  1  0  0  0  0
 10 11  1  0  0  0  0
 10 12  1  0  0  0  0
 10 13  1  0  0  0  0
M  END
> <VConfSearch Rank>
188

> <Conf_Id>
36

> <Delta U+W>
0.272

> <U+W>
-58.060

> <U>
9.781

> <W>
-67.841

> <W(PB)>
-69.537

> <W(SA)>
1.696

> <Valence>
6.123

> <Coulomb>
3.449

> <VdW>
0.209

> <VdW6>
-3.762

> <VdW12>
3.972

> <Bond>
0.078

> <Angle>
2.428

> <Pdih>
3.616

> <Idih>
0.002

> <Tether>
0.000

$$$$
VeraChem MOL file


 13 12  0  0  0  0  0  0  0  0999 V2000     
   19.4678   17.3220   23.0132 C   0  0  0  0  0  0  0  0  0  0  0  0
   20.0803   17.5713   24.0329 O   0  5  0  0  0  0  0  0  0  0  0  0
   18.7733   16.3342   22.8835 O   0  0  0  0  0  0  0  0  0  0  0  0
   19.5553   18.2764   21.8206 C   0  0  0  0  0  0  0  0  0  0  0  0
   18.5339   18.5935   21.5789 H   0  0  0  0  0  0  0  0  0  0  0  0
   19.9222   17.6981   20.9643 H   0  0  0  0  0  0  0  0  0  0  0  0
   20.4532   19.5234   22.0321 C   0  0  0  0  0  0  0  0  0  0  0  0
   20.0856   20.1000   22.8924 H   0  0  0  0  0  0  0  0  0  0  0  0
   21.4756   19.2035   22.2771 H   0  0  0  0  0  0  0  0  0  0  0  0
   20.4804   20.4243   20.7809 C   0  0  0  0  0  0  0  0  0  0  0  0
   19.4727   20.7831   20.5330 H   0  0  0  0  0  0  0  0  0  0  0  0
   21.1201   21.3005   20.9494 H   0  0  0  0  0  0  0  0  0  0  0  0
   20.8739   19.8793   19.9127 H   0  0  0  0  0  0  0  0  0  0  0  0
  1  2  1  0  0  0  0
  1  3  2  0  0  0  0
  1  4  1  0  0  0  0
  4  5  1  0  0  0  0
  4  6  1  0  0  0  0
  4  7  1  0  0  0  0
  7  8  1  0  0  0  0
  7  9  1  0  0  0  0
  7 10  1  0  0  0  0
 10 11  1  0  0  0  0
 10 12  1  0  0  0  0
 10 13  1  0  0  0  0
M  END
> <VConfSearch Rank>
189

> <Conf_Id>
0

> <Delta U+W>
0.000

> <U+W>
-58.332

> <U>
8.390

> <W>
-66.722

> <W(PB)>
-68.455

> <W(SA)>
1.733

> <Valence>
6.333

> <Coulomb>
1.215

> <VdW>
0.842

> <VdW6>
-3.344

> <VdW12>
4.186

> <Bond>
0.091

> <Angle>
2.713

> <Pdih>
3.529

> <Idih>
0.000

> <Tether>
0.000

$$$$
VeraChem MOL file


 13 12  0  0  0  0  0  0  0  0999 V2000     
   17.9625   19.6316   21.8666 C   0  0  0  0  0  0  0  0  0  0  0  0
   17.4408   19.8128   20.7847 O   0  5  0  0  0  0  0  0  0  0  0  0
   17.5759   20.1524   22.8936 O   0  0  0  0  0  0  0  0  0  0  0  0
   19.1799   18.7159   21.9360 C   0  0  0  0  0  0  0  0  0  0  0  0
   19.0645   17.9361   21.1733 H   0  0  0  0  0  0  0  0  0  0  0  0
   19.1759   18.2161   22.9124 H   0  0  0  0  0  0  0  0  0  0  0  0
   20.5157   19.4699   21.7290 C   0  0  0  0  0  0  0  0  0  0  0  0
   20.5043   19.9744   20.7527 H   0  0  0  0  0  0  0  0  0  0  0  0
   20.6158   20.2544   22.4922 H   0  0  0  0  0  0  0  0  0  0  0  0
   21.7257   18.5173   21.8048 C   0  0  0  0  0  0  0  0  0  0  0  0
   22.6627   19.0697   21.6558 H   0  0  0  0  0  0  0  0  0  0  0  0
   21.7756   18.0228   22.7839 H   0  0  0  0  0  0  0  0  0  0  0  0
   21.6633   17.7408   21.0310 H   0  0  0  0  0  0  0  0  0  0  0  0
  1  2  1  0  0  0  0
  1  3  2  0  0  0  0
  1  4  1  0  0  0  0
  4  5  1  0  0  0  0
  4  6  1  0  0  0  0
  4  7  1  0  0  0  0
  7  8  1  0  0  0  0
  7  9  1  0  0  0  0
  7 10  1  0  0  0  0
 10 11  1  0  0  0  0
 10 12  1  0  0  0  0
 10 13  1  0  0  0  0
M  END
> <VConfSearch Rank>
190

> <Conf_Id>
1

> <Delta U+W>
-1.339

> <U+W>
-59.672

> <U>
7.389

> <W>
-67.061

> <W(PB)>
-68.767

> <W(SA)>
1.707

> <Valence>
5.822

> <Coulomb>
1.255

> <VdW>
0.312

> <VdW6>
-3.061

> <VdW12>
3.372

> <Bond>
0.059

> <Angle>
2.241

> <Pdih>
3.522

> <Idih>
0.000

> <Tether>
0.000

$$$$
VeraChem MOL file


 13 12  0  0  0  0  0  0  0  0999 V2000     
   21.3698   19.8495   21.0566 C   0  0  0  0  0  0  0  0  0  0  0  0
   22.4862   19.8681   21.5355 O   0  5  0  0  0  0  0  0  0  0  0  0
   21.1529   19.7164   19.8687 O   0  0  0  0  0  0  0  0  0  0  0  0
   20.1804   20.0394   21.9947 C   0  0  0  0  0  0  0  0  0  0  0  0
   19.3027   20.3163   21.3978 H   0  0  0  0  0  0  0  0  0  0  0  0
   20.4070   20.8960   22.6408 H   0  0  0  0  0  0  0  0  0  0  0  0
   19.8605   18.8021   22.8723 C   0  0  0  0  0  0  0  0  0  0  0  0
   20.7579   18.5082   23.4347 H   0  0  0  0  0  0  0  0  0  0  0  0
   19.0981   19.0750   23.6148 H   0  0  0  0  0  0  0  0  0  0  0  0
   19.3504   17.6058   22.0426 C   0  0  0  0  0  0  0  0  0  0  0  0
   20.1070   17.2769   21.3179 H   0  0  0  0  0  0  0  0  0  0  0  0
   19.1150   16.7549   22.6950 H   0  0  0  0  0  0  0  0  0  0  0  0
   18.4402   17.8716   21.4893 H   0  0  0  0  0  0  0  0  0  0  0  0
  1  2  1  0  0  0  0
  1  3  2  0  0  0  0
  1  4  1  0  0  0  0
  4  5  1  0  0  0  0
  4  6  1  0  0  0  0
  4  7  1  0  0  0  0
  7  8  1  0  0  0  0
  7  9  1  0  0  0  0
  7 10  1  0  0  0  0
 10 11  1  0  0  0  0
 10 12  1  0  0  0  0
 10 13  1  0  0  0  0
M  END
> <VConfSearch Rank>
191

> <Conf_Id>
4

> <Delta U+W>
0.281

> <U+W>
-58.051

> <U>
9.781

> <W>
-67.832

> <W(PB)>
-69.535

> <W(SA)>
1.703

> <Valence>
6.123

> <Coulomb>
3.449

> <VdW>
0.209

> <VdW6>
-3.762

> <VdW12>
3.972

> <Bond>
0.078

> <Angle>
2.428

> <Pdih>
3.616

> <Idih>
0.002

> <Tether>
0.000

$$$$
VeraChem MOL file


 13 12  0  0  0  0  0  0  0  0999 V2000     
   18.7017   17.9264   22.3475 C   0  0  0  0  0  0  0  0  0  0  0  0
   17.8871   18.5514   22.9969 O   0  5  0  0  0  0  0  0  0  0  0  0
   18.3989   17.1291   21.4822 O   0  0  0  0  0  0  0  0  0  0  0  0
   20.1834   18.1250   22.6574 C   0  0  0  0  0  0  0  0  0  0  0  0
   20.6346   17.1298   22.7485 H   0  0  0  0  0  0  0  0  0  0  0  0
   20.2757   18.6056   23.6392 H   0  0  0  0  0  0  0  0  0  0  0  0
   20.9513   18.9434   21.5880 C   0  0  0  0  0  0  0  0  0  0  0  0
   22.0264   18.9080   21.8112 H   0  0  0  0  0  0  0  0  0  0  0  0
   20.8181   18.4765   20.6020 H   0  0  0  0  0  0  0  0  0  0  0  0
   20.4963   20.4164   21.5327 C   0  0  0  0  0  0  0  0  0  0  0  0
   20.6418   20.9088   22.5032 H   0  0  0  0  0  0  0  0  0  0  0  0
   21.0723   20.9713   20.7807 H   0  0  0  0  0  0  0  0  0  0  0  0
   19.4334   20.4915   21.2676 H   0  0  0  0  0  0  0  0  0  0  0  0
  1  2  1  0  0  0  0
  1  3  2  0  0  0  0
  1  4  1  0  0  0  0
  4  5  1  0  0  0  0
  4  6  1  0  0  0  0
  4  7  1  0  0  0  0
  7  8  1  0  0  0  0
  7  9  1  0  0  0  0
  7 10  1  0  0  0  0
 10 11  1  0  0  0  0
 10 12  1  0  0  0  0
 10 13  1  0  0  0  0
M  END
> <VConfSearch Rank>
192

> <Conf_Id>
36

> <Delta U+W>
0.272

> <U+W>
-58.060

> <U>
9.781

> <W>
-67.841

> <W(PB)>
-69.537

> <W(SA)>
1.696

> <Valence>
6.123

> <Coulomb>
3.449

> <VdW>
0.209

> <VdW6>
-3.762

> <VdW12>
3.972

> <Bond>
0.078

> <Angle>
2.428

> <Pdih>
3.616

> <Idih>
0.002

> <Tether>
0.000

$$$$
VeraChem MOL file


 13 12  0  0  0  0  0  0  0  0999 V2000     
   20.0767   21.1251   21.6423 C   0  0  0  0  0  0  0  0  0  0  0  0
   19.5337   21.2636   20.5637 O   0  5  0  0  0  0  0  0  0  0  0  0
   20.4802   22.0597   22.3044 O   0  0  0  0  0  0  0  0  0  0  0  0
   20.2761   19.7221   22.2189 C   0  0  0  0  0  0  0  0  0  0  0  0
   19.7844   19.6976   23.1987 H   0  0  0  0  0  0  0  0  0  0  0  0
   21.3501   19.5902   22.3963 H   0  0  0  0  0  0  0  0  0  0  0  0
   19.7454   18.5603   21.3388 C   0  0  0  0  0  0  0  0  0  0  0  0
   18.6696   18.6959   21.1599 H   0  0  0  0  0  0  0  0  0  0  0  0
   20.2371   18.5885   20.3564 H   0  0  0  0  0  0  0  0  0  0  0  0
   19.9897   17.1883   21.9989 C   0  0  0  0  0  0  0  0  0  0  0  0
   19.4817   17.1235   22.9702 H   0  0  0  0  0  0  0  0  0  0  0  0
   19.6079   16.3796   21.3622 H   0  0  0  0  0  0  0  0  0  0  0  0
   21.0618   17.0152   22.1603 H   0  0  0  0  0  0  0  0  0  0  0  0
  1  2  1  0  0  0  0
  1  3  2  0  0  0  0
  1  4  1  0  0  0  0
  4  5  1  0  0  0  0
  4  6  1  0  0  0  0
  4  7  1  0  0  0  0
  7  8  1  0  0  0  0
  7  9  1  0  0  0  0
  7 10  1  0  0  0  0
 10 11  1  0  0  0  0
 10 12  1  0  0  0  0
 10 13  1  0  0  0  0
M  END
> <VConfSearch Rank>
193

> <Conf_Id>
0

> <Delta U+W>
0.000

> <U+W>
-58.332

> <U>
8.390

> <W>
-66.722

> <W(PB)>
-68.455

> <W(SA)>
1.733

> <Valence>
6.333

> <Coulomb>
1.215

> <VdW>
0.842

> <VdW6>
-3.344

> <VdW12>
4.186

> <Bond>
0.091

> <Angle>
2.713

> <Pdih>
3.529

> <Idih>
0.000

> <Tether>
0.000

$$$$
VeraChem MOL file


 13 12  0  0  0  0  0  0  0  0999 V2000     
   21.3577   18.6570   23.3946 C   0  0  0  0  0  0  0  0  0  0  0  0
   21.7620   19.6293   24.0001 O   0  5  0  0  0  0  0  0  0  0  0  0
   21.9665   17.6082   23.3263 O   0  0  0  0  0  0  0  0  0  0  0  0
   20.0228   18.7651   22.6654 C   0  0  0  0  0  0  0  0  0  0  0  0
   19.3767   19.4444   23.2347 H   0  0  0  0  0  0  0  0  0  0  0  0
   19.5454   17.7777   22.6790 H   0  0  0  0  0  0  0  0  0  0  0  0
   20.1692   19.2657   21.2081 C   0  0  0  0  0  0  0  0  0  0  0  0
   20.6573   20.2504   21.2062 H   0  0  0  0  0  0  0  0  0  0  0  0
   20.8258   18.5833   20.6504 H   0  0  0  0  0  0  0  0  0  0  0  0
   18.8036   19.3640   20.4991 C   0  0  0  0  0  0  0  0  0  0  0  0
   18.9278   19.7202   19.4681 H   0  0  0  0  0  0  0  0  0  0  0  0
   18.3089   18.3844   20.4620 H   0  0  0  0  0  0  0  0  0  0  0  0
   18.1391   20.0644   21.0220 H   0  0  0  0  0  0  0  0  0  0  0  0
  1  2  1  0  0  0  0
  1  3  2  0  0  0  0
  1  4  1  0  0  0  0
  4  5  1  0  0  0  0
  4  6  1  0  0  0  0
  4  7  1  0  0  0  0
  7  8  1  0  0  0  0
  7  9  1  0  0  0  0
  7 10  1  0  0  0  0
 10 11  1  0  0  0  0
 10 12  1  0  0  0  0
 10 13  1  0  0  0  0
M  END
> <VConfSearch Rank>
194

> <Conf_Id>
1

> <Delta U+W>
-1.339

> <U+W>
-59.672

> <U>
7.389

> <W>
-67.061

> <W(PB)>
-68.767

> <W(SA)>
1.707

> <Valence>
5.822

> <Coulomb>
1.255

> <VdW>
0.312

> <VdW6>
-3.061

> <VdW12>
3.372

> <Bond>
0.059

> <Angle>
2.241

> <Pdih>
3.522

> <Idih>
0.000

> <Tether>
0.000

$$$$
VeraChem MOL file


 13 12  0  0  0  0  0  0  0  0999 V2000     
   19.3869   18.7004   20.3863 C   0  0  0  0  0  0  0  0  0  0  0  0
   19.1329   17.5471   20.1009 O   0  5  0  0  0  0  0  0  0  0  0  0
   18.6596   19.6339   20.1117 O   0  0  0  0  0  0  0  0  0  0  0  0
   20.7069   18.9930   21.0955 C   0  0  0  0  0  0  0  0  0  0  0  0
   20.9313   20.0618   20.9933 H   0  0  0  0  0  0  0  0  0  0  0  0
   21.4941   18.4513   20.5577 H   0  0  0  0  0  0  0  0  0  0  0  0
   20.7284   18.5834   22.5905 C   0  0  0  0  0  0  0  0  0  0  0  0
   20.4619   17.5213   22.6848 H   0  0  0  0  0  0  0  0  0  0  0  0
   21.7512   18.6877   22.9776 H   0  0  0  0  0  0  0  0  0  0  0  0
   19.7746   19.4382   23.4506 C   0  0  0  0  0  0  0  0  0  0  0  0
   18.7342   19.3233   23.1189 H   0  0  0  0  0  0  0  0  0  0  0  0
   19.8287   19.1361   24.5046 H   0  0  0  0  0  0  0  0  0  0  0  0
   20.0374   20.5023   23.3883 H   0  0  0  0  0  0  0  0  0  0  0  0
  1  2  1  0  0  0  0
  1  3  2  0  0  0  0
  1  4  1  0  0  0  0
  4  5  1  0  0  0  0
  4  6  1  0  0  0  0
  4  7  1  0  0  0  0
  7  8  1  0  0  0  0
  7  9  1  0  0  0  0
  7 10  1  0  0  0  0
 10 11  1  0  0  0  0
 10 12  1  0  0  0  0
 10 13  1  0  0  0  0
M  END
> <VConfSearch Rank>
195

> <Conf_Id>
4

> <Delta U+W>
0.281

> <U+W>
-58.051

> <U>
9.781

> <W>
-67.832

> <W(PB)>
-69.535

> <W(SA)>
1.703

> <Valence>
6.123

> <Coulomb>
3.449

> <VdW>
0.209

> <VdW6>
-3.762

> <VdW12>
3.972

> <Bond>
0.078

> <Angle>
2.428

> <Pdih>
3.616

> <Idih>
0.002

> <Tether>
0.000

$$$$
VeraChem MOL file


 13 12  0  0  0  0  0  0  0  0999 V2000     
   21.7303   19.5323   22.5348 C   0  0  0  0  0  0  0  0  0  0  0  0
   22.5942   18.9631   21.8981 O   0  5  0  0  0  0  0  0  0  0  0  0
   21.8031   20.6981   22.8691 O   0  0  0  0  0  0  0  0  0  0  0  0
   20.5041   18.7336   22.9698 C   0  0  0  0  0  0  0  0  0  0  0  0
   20.3448   18.9337   24.0360 H   0  0  0  0  0  0  0  0  0  0  0  0
   20.7308   17.6642   22.8786 H   0  0  0  0  0  0  0  0  0  0  0  0
   19.2127   19.0746   22.1827 C   0  0  0  0  0  0  0  0  0  0  0  0
   18.3589   18.5713   22.6566 H   0  0  0  0  0  0  0  0  0  0  0  0
   19.0177   20.1543   22.2461 H   0  0  0  0  0  0  0  0  0  0  0  0
   19.2925   18.6456   20.7030 C   0  0  0  0  0  0  0  0  0  0  0  0
   19.4650   17.5648   20.6165 H   0  0  0  0  0  0  0  0  0  0  0  0
   18.3568   18.8830   20.1804 H   0  0  0  0  0  0  0  0  0  0  0  0
   20.1101   19.1645   20.1852 H   0  0  0  0  0  0  0  0  0  0  0  0
  1  2  1  0  0  0  0
  1  3  2  0  0  0  0
  1  4  1  0  0  0  0
  4  5  1  0  0  0  0
  4  6  1  0  0  0  0
  4  7  1  0  0  0  0
  7  8  1  0  0  0  0
  7  9  1  0  0  0  0
  7 10  1  0  0  0  0
 10 11  1  0  0  0  0
 10 12  1  0  0  0  0
 10 13  1  0  0  0  0
M  END
> <VConfSearch Rank>
196

> <Conf_Id>
36

> <Delta U+W>
0.272

> <U+W>
-58.060

> <U>
9.781

> <W>
-67.841

> <W(PB)>
-69.537

> <W(SA)>
1.696

> <Valence>
6.123

> <Coulomb>
3.449

> <VdW>
0.209

> <VdW6>
-3.762

> <VdW12>
3.972

> <Bond>
0.078

> <Angle>
2.428

> <Pdih>
3.616

> <Idih>
0.002

> <Tether>
0.000

$$$$
VeraChem MOL file


 13 12  0  0  0  0  0  0  0  0999 V2000     
   20.5918   19.2037   19.7757 C   0  0  0  0  0  0  0  0  0  0  0  0
   21.7210   19.6331   19.9089 O   0  5  0  0  0  0  0  0  0  0  0  0
   20.0837   19.0042   18.6909 O   0  0  0  0  0  0  0  0  0  0  0  0
   19.7462   18.8908   21.0118 C   0  0  0  0  0  0  0  0  0  0  0  0
   19.4522   17.8363   20.9493 H   0  0  0  0  0  0  0  0  0  0  0  0
   18.8272   19.4844   20.9390 H   0  0  0  0  0  0  0  0  0  0  0  0
   20.4361   19.1610   22.3745 C   0  0  0  0  0  0  0  0  0  0  0  0
   21.3584   18.5674   22.4443 H   0  0  0  0  0  0  0  0  0  0  0  0
   20.7327   20.2175   22.4339 H   0  0  0  0  0  0  0  0  0  0  0  0
   19.5108   18.8175   23.5593 C   0  0  0  0  0  0  0  0  0  0  0  0
   19.2247   17.7577   23.5401 H   0  0  0  0  0  0  0  0  0  0  0  0
   20.0156   19.0151   24.5139 H   0  0  0  0  0  0  0  0  0  0  0  0
   18.5940   19.4210   23.5295 H   0  0  0  0  0  0  0  0  0  0  0  0
  1  2  1  0  0  0  0
  1  3  2  0  0  0  0
  1  4  1  0  0  0  0
  4  5  1  0  0  0  0
  4  6  1  0  0  0  0
  4  7  1  0  0  0  0
  7  8  1  0  0  0  0
  7  9  1  0  0  0  0
  7 10  1  0  0  0  0
 10 11  1  0  0  0  0
 10 12  1  0  0  0  0
 10 13  1  0  0  0  0
M  END
> <VConfSearch Rank>
197

> <Conf_Id>
0

> <Delta U+W>
0.000

> <U+W>
-58.332

> <U>
8.390

> <W>
-66.722

> <W(PB)>
-68.455

> <W(SA)>
1.733

> <Valence>
6.333

> <Coulomb>
1.215

> <VdW>
0.842

> <VdW6>
-3.344

> <VdW12>
4.186

> <Bond>
0.091

> <Angle>
2.713

> <Pdih>
3.529

> <Idih>
0.000

> <Tether>
0.000

$$$$
VeraChem MOL file


 13 12  0  0  0  0  0  0  0  0999 V2000     
   19.5180   21.0647   22.2019 C   0  0  0  0  0  0  0  0  0  0  0  0
   20.4008   21.7364   22.6968 O   0  5  0  0  0  0  0  0  0  0  0  0
   18.3367   21.3275   22.3055 O   0  0  0  0  0  0  0  0  0  0  0  0
   19.9133   19.8136   21.4246 C   0  0  0  0  0  0  0  0  0  0  0  0
   20.8820   20.0011   20.9456 H   0  0  0  0  0  0  0  0  0  0  0  0
   19.1798   19.6639   20.6230 H   0  0  0  0  0  0  0  0  0  0  0  0
   19.9949   18.5500   22.3147 C   0  0  0  0  0  0  0  0  0  0  0  0
   20.7249   18.7151   23.1196 H   0  0  0  0  0  0  0  0  0  0  0  0
   19.0223   18.3777   22.7967 H   0  0  0  0  0  0  0  0  0  0  0  0
   20.3963   17.3039   21.5002 C   0  0  0  0  0  0  0  0  0  0  0  0
   20.4488   16.4190   22.1478 H   0  0  0  0  0  0  0  0  0  0  0  0
   19.6646   17.1006   20.7071 H   0  0  0  0  0  0  0  0  0  0  0  0
   21.3802   17.4406   21.0325 H   0  0  0  0  0  0  0  0  0  0  0  0
  1  2  1  0  0  0  0
  1  3  2  0  0  0  0
  1  4  1  0  0  0  0
  4  5  1  0  0  0  0
  4  6  1  0  0  0  0
  4  7  1  0  0  0  0
  7  8  1  0  0  0  0
  7  9  1  0  0  0  0
  7 10  1  0  0  0  0
 10 11  1  0  0  0  0
 10 12  1  0  0  0  0
 10 13  1  0  0  0  0
M  END
> <VConfSearch Rank>
198

> <Conf_Id>
1

> <Delta U+W>
-1.339

> <U+W>
-59.672

> <U>
7.389

> <W>
-67.061

> <W(PB)>
-68.767

> <W(SA)>
1.707

> <Valence>
5.822

> <Coulomb>
1.255

> <VdW>
0.312

> <VdW6>
-3.061

> <VdW12>
3.372

> <Bond>
0.059

> <Angle>
2.241

> <Pdih>
3.522

> <Idih>
0.000

> <Tether>
0.000

$$$$
VeraChem MOL file


 13 12  0  0  0  0  0  0  0  0999 V2000     
   20.3643   18.4686   23.7013 C   0  0  0  0  0  0  0  0  0  0  0  0
   19.3580   18.1851   24.3201 O   0  5  0  0  0  0  0  0  0  0  0  0
   21.4083   17.8557   23.8035 O   0  0  0  0  0  0  0  0  0  0  0  0
   20.3223   19.6809   22.7742 C   0  0  0  0  0  0  0  0  0  0  0  0
   21.3513   19.9890   22.5518 H   0  0  0  0  0  0  0  0  0  0  0  0
   19.8591   20.5034   23.3322 H   0  0  0  0  0  0  0  0  0  0  0  0
   19.5389   19.4459   21.4573 C   0  0  0  0  0  0  0  0  0  0  0  0
   18.5229   19.0980   21.6909 H   0  0  0  0  0  0  0  0  0  0  0  0
   19.4310   20.4020   20.9272 H   0  0  0  0  0  0  0  0  0  0  0  0
   20.2365   18.4307   20.5285 C   0  0  0  0  0  0  0  0  0  0  0  0
   20.3217   17.4480   21.0110 H   0  0  0  0  0  0  0  0  0  0  0  0
   19.6673   18.3025   19.5986 H   0  0  0  0  0  0  0  0  0  0  0  0
   21.2466   18.7702   20.2643 H   0  0  0  0  0  0  0  0  0  0  0  0
  1  2  1  0  0  0  0
  1  3  2  0  0  0  0
  1  4  1  0  0  0  0
  4  5  1  0  0  0  0
  4  6  1  0  0  0  0
  4  7  1  0  0  0  0
  7  8  1  0  0  0  0
  7  9  1  0  0  0  0
  7 10  1  0  0  0  0
 10 11  1  0  0  0  0
 10 12  1  0  0  0  0
 10 13  1  0  0  0  0
M  END
> <VConfSearch Rank>
199

> <Conf_Id>
4

> <Delta U+W>
0.281

> <U+W>
-58.051

> <U>
9.781

> <W>
-67.832

> <W(PB)>
-69.535

> <W(SA)>
1.703

> <Valence>
6.123

> <Coulomb>
3.449

> <VdW>
0.209

> <VdW6>
-3.762

> <VdW12>
3.972

> <Bond>
0.078

> <Angle>
2.428

> <Pdih>
3.616

> <Idih>
0.002

> <Tether>
0.000

$$$$
VeraChem MOL file


 13 12  0  0  0  0  0  0  0  0999 V2000     
   20.0451   20.5891   21.2369 C   0  0  0  0  0  0  0  0  0  0  0  0
   20.9090   20.6796   20.3875 O   0  5  0  0  0  0  0  0  0  0  0  0
   18.9375   21.0745   21.1198 O   0  0  0  0  0  0  0  0  0  0  0  0
   20.3778   19.8586   22.5355 C   0  0  0  0  0  0  0  0  0  0  0  0
   20.0481   20.4972   23.3637 H   0  0  0  0  0  0  0  0  0  0  0  0
   21.4679   19.7691   22.6191 H   0  0  0  0  0  0  0  0  0  0  0  0
   19.7160   18.4627   22.6658 C   0  0  0  0  0  0  0  0  0  0  0  0
   19.8832   18.0786   23.6814 H   0  0  0  0  0  0  0  0  0  0  0  0
   18.6284   18.5581   22.5394 H   0  0  0  0  0  0  0  0  0  0  0  0
   20.2722   17.4481   21.6454 C   0  0  0  0  0  0  0  0  0  0  0  0
   21.3556   17.3208   21.7692 H   0  0  0  0  0  0  0  0  0  0  0  0
   19.7977   16.4670   21.7775 H   0  0  0  0  0  0  0  0  0  0  0  0
   20.0826   17.7795   20.6159 H   0  0  0  0  0  0  0  0  0  0  0  0
  1  2  1  0  0  0  0
  1  3  2  0  0  0  0
  1  4  1  0  0  0  0
  4  5  1  0  0  0  0
  4  6  1  0  0  0  0
  4  7  1  0  0  0  0
  7  8  1  0  0  0  0
  7  9  1  0  0  0  0
  7 10  1  0  0  0  0
 10 11  1  0  0  0  0
 10 12  1  0  0  0  0
 10 13  1  0  0  0  0
M  END
> <VConfSearch Rank>
200

> <Conf_Id>
36

> <Delta U+W>
0.272

> <U+W>
-58.060

> <U>
9.781

> <W>
-67.841

> <W(PB)>
-69.537

> <W(SA)>
1.696

> <Valence>
6.123

> <Coulomb>
3.449

> <VdW>
0.209

> <VdW6>
-3.762

> <VdW12>
3.972

> <Bond>
0.078

> <Angle>
2.428

> <Pdih>
3.616

> <Idih>
0.002

> <Tether>
0.000

$$$$
VeraChem MOL file


 13 12  0  0  0  0  0  0  0  0999 V2000     
   20.8632   18.3395   19.9759 C   0  0  0  0  0  0  0  0  0  0  0  0
   22.0473   18.4230   20.2375 O   0  5  0  0  0  0  0  0  0  0  0  0
   20.4490   17.9608   18.8990 O   0  0  0  0  0  0  0  0  0  0  0  0
   19.8225   18.7218   21.0301 C   0  0  0  0  0  0  0  0  0  0  0  0
   19.1794   17.8478   21.1879 H   0  0  0  0  0  0  0  0  0  0  0  0
   19.1928   19.5090   20.5986 H   0  0  0  0  0  0  0  0  0  0  0  0
   20.3978   19.1993   22.3892 C   0  0  0  0  0  0  0  0  0  0  0  0
   21.0308   18.4102   22.8185 H   0  0  0  0  0  0  0  0  0  0  0  0
   21.0443   20.0734   22.2285 H   0  0  0  0  0  0  0  0  0  0  0  0
   19.2783   19.5619   23.3857 C   0  0  0  0  0  0  0  0  0  0  0  0
   18.6356   18.6947   23.5872 H   0  0  0  0  0  0  0  0  0  0  0  0
   19.7042   19.8971   24.3404 H   0  0  0  0  0  0  0  0  0  0  0  0
   18.6491   20.3712   22.9924 H   0  0  0  0  0  0  0  0  0  0  0  0
  1  2  1  0  0  0  0
  1  3  2  0  0  0  0
  1  4  1  0  0  0  0
  4  5  1  0  0  0  0
  4  6  1  0  0  0  0
  4  7  1  0  0  0  0
  7  8  1  0  0  0  0
  7  9  1  0  0  0  0
  7 10  1  0  0  0  0
 10 11  1  0  0  0  0
 10 12  1  0  0  0  0
 10 13  1  0  0  0  0
M  END
> <VConfSearch Rank>
201

> <Conf_Id>
0

> <Delta U+W>
0.000

> <U+W>
-58.332

> <U>
8.390

> <W>
-66.722

> <W(PB)>
-68.455

> <W(SA)>
1.733

> <Valence>
6.333

> <Coulomb>
1.215

> <VdW>
0.842

> <VdW6>
-3.344

> <VdW12>
4.186

> <Bond>
0.091

> <Angle>
2.713

> <Pdih>
3.529

> <Idih>
0.000

> <Tether>
0.000

$$$$
VeraChem MOL file


 13 12  0  0  0  0  0  0  0  0999 V2000     
   18.2884   18.8082   20.6018 C   0  0  0  0  0  0  0  0  0  0  0  0
   17.2435   18.5726   21.1746 O   0  5  0  0  0  0  0  0  0  0  0  0
   18.5032   18.5044   19.4456 O   0  0  0  0  0  0  0  0  0  0  0  0
   19.3972   19.5063   21.3821 C   0  0  0  0  0  0  0  0  0  0  0  0
   18.9300   20.1835   22.1074 H   0  0  0  0  0  0  0  0  0  0  0  0
   19.9688   20.1273   20.6816 H   0  0  0  0  0  0  0  0  0  0  0  0
   20.3402   18.5166   22.1082 C   0  0  0  0  0  0  0  0  0  0  0  0
   19.7557   17.8935   22.7994 H   0  0  0  0  0  0  0  0  0  0  0  0
   20.7947   17.8374   21.3733 H   0  0  0  0  0  0  0  0  0  0  0  0
   21.4488   19.2528   22.8869 C   0  0  0  0  0  0  0  0  0  0  0  0
   22.1067   18.5352   23.3944 H   0  0  0  0  0  0  0  0  0  0  0  0
   22.0662   19.8599   22.2118 H   0  0  0  0  0  0  0  0  0  0  0  0
   21.0192   19.9164   23.6489 H   0  0  0  0  0  0  0  0  0  0  0  0
  1  2  1  0  0  0  0
  1  3  2  0  0  0  0
  1  4  1  0  0  0  0
  4  5  1  0  0  0  0
  4  6  1  0  0  0  0
  4  7  1  0  0  0  0
  7  8  1  0  0  0  0
  7  9  1  0  0  0  0
  7 10  1  0  0  0  0
 10 11  1  0  0  0  0
 10 12  1  0  0  0  0
 10 13  1  0  0  0  0
M  END
> <VConfSearch Rank>
202

> <Conf_Id>
1

> <Delta U+W>
-1.339

> <U+W>
-59.672

> <U>
7.389

> <W>
-67.061

> <W(PB)>
-68.767

> <W(SA)>
1.707

> <Valence>
5.822

> <Coulomb>
1.255

> <VdW>
0.312

> <VdW6>
-3.061

> <VdW12>
3.372

> <Bond>
0.059

> <Angle>
2.241

> <Pdih>
3.522

> <Idih>
0.000

> <Tether>
0.000

$$$$
VeraChem MOL file


 13 12  0  0  0  0  0  0  0  0999 V2000     
   20.5602   19.3111   23.7010 C   0  0  0  0  0  0  0  0  0  0  0  0
   21.7464   19.4305   23.9349 O   0  5  0  0  0  0  0  0  0  0  0  0
   19.7044   20.0093   24.2070 O   0  0  0  0  0  0  0  0  0  0  0  0
   20.1220   18.2015   22.7484 C   0  0  0  0  0  0  0  0  0  0  0  0
   19.0496   18.0196   22.8904 H   0  0  0  0  0  0  0  0  0  0  0  0
   20.6417   17.2851   23.0526 H   0  0  0  0  0  0  0  0  0  0  0  0
   20.4210   18.4922   21.2552 C   0  0  0  0  0  0  0  0  0  0  0  0
   21.4903   18.7137   21.1306 H   0  0  0  0  0  0  0  0  0  0  0  0
   20.2148   17.5892   20.6645 H   0  0  0  0  0  0  0  0  0  0  0  0
   19.5790   19.6600   20.7010 C   0  0  0  0  0  0  0  0  0  0  0  0
   19.7931   20.5920   21.2409 H   0  0  0  0  0  0  0  0  0  0  0  0
   19.8002   19.8264   19.6387 H   0  0  0  0  0  0  0  0  0  0  0  0
   18.5056   19.4494   20.7955 H   0  0  0  0  0  0  0  0  0  0  0  0
  1  2  1  0  0  0  0
  1  3  2  0  0  0  0
  1  4  1  0  0  0  0
  4  5  1  0  0  0  0
  4  6  1  0  0  0  0
  4  7  1  0  0  0  0
  7  8  1  0  0  0  0
  7  9  1  0  0  0  0
  7 10  1  0  0  0  0
 10 11  1  0  0  0  0
 10 12  1  0  0  0  0
 10 13  1  0  0  0  0
M  END
> <VConfSearch Rank>
203

> <Conf_Id>
4

> <Delta U+W>
0.281

> <U+W>
-58.051

> <U>
9.781

> <W>
-67.832

> <W(PB)>
-69.535

> <W(SA)>
1.703

> <Valence>
6.123

> <Coulomb>
3.449

> <VdW>
0.209

> <VdW6>
-3.762

> <VdW12>
3.972

> <Bond>
0.078

> <Angle>
2.428

> <Pdih>
3.616

> <Idih>
0.002

> <Tether>
0.000

$$$$
VeraChem MOL file


 13 12  0  0  0  0  0  0  0  0999 V2000     
   18.3574   19.2290   21.7809 C   0  0  0  0  0  0  0  0  0  0  0  0
   18.1342   19.5760   20.6383 O   0  5  0  0  0  0  0  0  0  0  0  0
   17.6275   18.4898   22.4110 O   0  0  0  0  0  0  0  0  0  0  0  0
   19.6010   19.7775   22.4762 C   0  0  0  0  0  0  0  0  0  0  0  0
   19.2901   20.1429   23.4622 H   0  0  0  0  0  0  0  0  0  0  0  0
   19.9620   20.6483   21.9151 H   0  0  0  0  0  0  0  0  0  0  0  0
   20.7418   18.7417   22.6465 C   0  0  0  0  0  0  0  0  0  0  0  0
   21.5269   19.1723   23.2828 H   0  0  0  0  0  0  0  0  0  0  0  0
   20.3589   17.8562   23.1731 H   0  0  0  0  0  0  0  0  0  0  0  0
   21.3613   18.3187   21.2984 C   0  0  0  0  0  0  0  0  0  0  0  0
   21.7705   19.1868   20.7650 H   0  0  0  0  0  0  0  0  0  0  0  0
   22.1771   17.6013   21.4557 H   0  0  0  0  0  0  0  0  0  0  0  0
   20.6122   17.8425   20.6519 H   0  0  0  0  0  0  0  0  0  0  0  0
  1  2  1  0  0  0  0
  1  3  2  0  0  0  0
  1  4  1  0  0  0  0
  4  5  1  0  0  0  0
  4  6  1  0  0  0  0
  4  7  1  0  0  0  0
  7  8  1  0  0  0  0
  7  9  1  0  0  0  0
  7 10  1  0  0  0  0
 10 11  1  0  0  0  0
 10 12  1  0  0  0  0
 10 13  1  0  0  0  0
M  END
> <VConfSearch Rank>
204

> <Conf_Id>
36

> <Delta U+W>
0.272

> <U+W>
-58.060

> <U>
9.781

> <W>
-67.841

> <W(PB)>
-69.537

> <W(SA)>
1.696

> <Valence>
6.123

> <Coulomb>
3.449

> <VdW>
0.209

> <VdW6>
-3.762

> <VdW12>
3.972

> <Bond>
0.078

> <Angle>
2.428

> <Pdih>
3.616

> <Idih>
0.002

> <Tether>
0.000

$$$$
VeraChem MOL file


 13 12  0  0  0  0  0  0  0  0999 V2000     
   18.1551   18.4440   20.9548 C   0  0  0  0  0  0  0  0  0  0  0  0
   17.4442   19.3278   21.3915 O   0  5  0  0  0  0  0  0  0  0  0  0
   17.7426   17.5600   20.2315 O   0  0  0  0  0  0  0  0  0  0  0  0
   19.6418   18.4160   21.3148 C   0  0  0  0  0  0  0  0  0  0  0  0
   20.2070   18.4373   20.3754 H   0  0  0  0  0  0  0  0  0  0  0  0
   19.8460   17.4488   21.7894 H   0  0  0  0  0  0  0  0  0  0  0  0
   20.1232   19.5640   22.2402 C   0  0  0  0  0  0  0  0  0  0  0  0
   19.9151   20.5323   21.7641 H   0  0  0  0  0  0  0  0  0  0  0  0
   19.5536   19.5427   23.1798 H   0  0  0  0  0  0  0  0  0  0  0  0
   21.6302   19.4536   22.5478 C   0  0  0  0  0  0  0  0  0  0  0  0
   22.2241   19.5037   21.6258 H   0  0  0  0  0  0  0  0  0  0  0  0
   21.9519   20.2735   23.2032 H   0  0  0  0  0  0  0  0  0  0  0  0
   21.8597   18.5061   23.0528 H   0  0  0  0  0  0  0  0  0  0  0  0
  1  2  1  0  0  0  0
  1  3  2  0  0  0  0
  1  4  1  0  0  0  0
  4  5  1  0  0  0  0
  4  6  1  0  0  0  0
  4  7  1  0  0  0  0
  7  8  1  0  0  0  0
  7  9  1  0  0  0  0
  7 10  1  0  0  0  0
 10 11  1  0  0  0  0
 10 12  1  0  0  0  0
 10 13  1  0  0  0  0
M  END
> <VConfSearch Rank>
205

> <Conf_Id>
0

> <Delta U+W>
0.000

> <U+W>
-58.332

> <U>
8.390

> <W>
-66.722

> <W(PB)>
-68.455

> <W(SA)>
1.733

> <Valence>
6.333

> <Coulomb>
1.215

> <VdW>
0.842

> <VdW6>
-3.344

> <VdW12>
4.186

> <Bond>
0.091

> <Angle>
2.713

> <Pdih>
3.529

> <Idih>
0.000

> <Tether>
0.000

$$$$
VeraChem MOL file


 13 12  0  0  0  0  0  0  0  0999 V2000     
   20.7327   19.5044   19.9106 C   0  0  0  0  0  0  0  0  0  0  0  0
   21.9341   19.6624   19.8269 O   0  5  0  0  0  0  0  0  0  0  0  0
   19.9361   19.9911   19.1335 O   0  0  0  0  0  0  0  0  0  0  0  0
   20.1942   18.6654   21.0645 C   0  0  0  0  0  0  0  0  0  0  0  0
   20.9319   17.8867   21.2938 H   0  0  0  0  0  0  0  0  0  0  0  0
   19.2843   18.1577   20.7220 H   0  0  0  0  0  0  0  0  0  0  0  0
   19.8924   19.5026   22.3309 C   0  0  0  0  0  0  0  0  0  0  0  0
   20.8082   20.0140   22.6590 H   0  0  0  0  0  0  0  0  0  0  0  0
   19.1601   20.2850   22.0871 H   0  0  0  0  0  0  0  0  0  0  0  0
   19.3503   18.6262   23.4779 C   0  0  0  0  0  0  0  0  0  0  0  0
   19.1425   19.2370   24.3661 H   0  0  0  0  0  0  0  0  0  0  0  0
   18.4176   18.1272   23.1837 H   0  0  0  0  0  0  0  0  0  0  0  0
   20.0783   17.8542   23.7600 H   0  0  0  0  0  0  0  0  0  0  0  0
  1  2  1  0  0  0  0
  1  3  2  0  0  0  0
  1  4  1  0  0  0  0
  4  5  1  0  0  0  0
  4  6  1  0  0  0  0
  4  7  1  0  0  0  0
  7  8  1  0  0  0  0
  7  9  1  0  0  0  0
  7 10  1  0  0  0  0
 10 11  1  0  0  0  0
 10 12  1  0  0  0  0
 10 13  1  0  0  0  0
M  END
> <VConfSearch Rank>
206

> <Conf_Id>
1

> <Delta U+W>
-1.339

> <U+W>
-59.672

> <U>
7.389

> <W>
-67.061

> <W(PB)>
-68.767

> <W(SA)>
1.707

> <Valence>
5.822

> <Coulomb>
1.255

> <VdW>
0.312

> <VdW6>
-3.061

> <VdW12>
3.372

> <Bond>
0.059

> <Angle>
2.241

> <Pdih>
3.522

> <Idih>
0.000

> <Tether>
0.000

$$$$
VeraChem MOL file


 13 12  0  0  0  0  0  0  0  0999 V2000     
   21.1209   19.4672   23.4005 C   0  0  0  0  0  0  0  0  0  0  0  0
   20.7439   19.0770   24.4876 O   0  5  0  0  0  0  0  0  0  0  0  0
   22.2902   19.5138   23.0744 O   0  0  0  0  0  0  0  0  0  0  0  0
   20.0703   19.9577   22.4073 C   0  0  0  0  0  0  0  0  0  0  0  0
   20.5689   20.5573   21.6359 H   0  0  0  0  0  0  0  0  0  0  0  0
   19.3987   20.6342   22.9492 H   0  0  0  0  0  0  0  0  0  0  0  0
   19.2407   18.8251   21.7499 C   0  0  0  0  0  0  0  0  0  0  0  0
   18.7792   18.2059   22.5320 H   0  0  0  0  0  0  0  0  0  0  0  0
   18.4183   19.2697   21.1731 H   0  0  0  0  0  0  0  0  0  0  0  0
   20.0892   17.9377   20.8158 C   0  0  0  0  0  0  0  0  0  0  0  0
   20.8968   17.4408   21.3696 H   0  0  0  0  0  0  0  0  0  0  0  0
   19.4687   17.1597   20.3524 H   0  0  0  0  0  0  0  0  0  0  0  0
   20.5422   18.5339   20.0129 H   0  0  0  0  0  0  0  0  0  0  0  0
  1  2  1  0  0  0  0
  1  3  2  0  0  0  0
  1  4  1  0  0  0  0
  4  5  1  0  0  0  0
  4  6  1  0  0  0  0
  4  7  1  0  0  0  0
  7  8  1  0  0  0  0
  7  9  1  0  0  0  0
  7 10  1  0  0  0  0
 10 11  1  0  0  0  0
 10 12  1  0  0  0  0
 10 13  1  0  0  0  0
M  END
> <VConfSearch Rank>
207

> <Conf_Id>
4

> <Delta U+W>
0.281

> <U+W>
-58.051

> <U>
9.781

> <W>
-67.832

> <W(PB)>
-69.535

> <W(SA)>
1.703

> <Valence>
6.123

> <Coulomb>
3.449

> <VdW>
0.209

> <VdW6>
-3.762

> <VdW12>
3.972

> <Bond>
0.078

> <Angle>
2.428

> <Pdih>
3.616

> <Idih>
0.002

> <Tether>
0.000

$$$$
VeraChem MOL file


 13 12  0  0  0  0  0  0  0  0999 V2000     
   19.5594   19.0167   23.6989 C   0  0  0  0  0  0  0  0  0  0  0  0
   18.4920   19.5934   23.7615 O   0  5  0  0  0  0  0  0  0  0  0  0
   19.8392   18.0500   24.3795 O   0  0  0  0  0  0  0  0  0  0  0  0
   20.6198   19.5547   22.7413 C   0  0  0  0  0  0  0  0  0  0  0  0
   21.5609   19.6224   23.3001 H   0  0  0  0  0  0  0  0  0  0  0  0
   20.3476   20.5778   22.4543 H   0  0  0  0  0  0  0  0  0  0  0  0
   20.8329   18.6841   21.4764 C   0  0  0  0  0  0  0  0  0  0  0  0
   21.7074   19.0570   20.9260 H   0  0  0  0  0  0  0  0  0  0  0  0
   21.0643   17.6520   21.7751 H   0  0  0  0  0  0  0  0  0  0  0  0
   19.6068   18.6930   20.5402 C   0  0  0  0  0  0  0  0  0  0  0  0
   19.3714   19.7138   20.2116 H   0  0  0  0  0  0  0  0  0  0  0  0
   19.7977   18.0843   19.6469 H   0  0  0  0  0  0  0  0  0  0  0  0
   18.7216   18.2841   21.0452 H   0  0  0  0  0  0  0  0  0  0  0  0
  1  2  1  0  0  0  0
  1  3  2  0  0  0  0
  1  4  1  0  0  0  0
  4  5  1  0  0  0  0
  4  6  1  0  0  0  0
  4  7  1  0  0  0  0
  7  8  1  0  0  0  0
  7  9  1  0  0  0  0
  7 10  1  0  0  0  0
 10 11  1  0  0  0  0
 10 12  1  0  0  0  0
 10 13  1  0  0  0  0
M  END
> <VConfSearch Rank>
208

> <Conf_Id>
36

> <Delta U+W>
0.272

> <U+W>
-58.060

> <U>
9.781

> <W>
-67.841

> <W(PB)>
-69.537

> <W(SA)>
1.696

> <Valence>
6.123

> <Coulomb>
3.449

> <VdW>
0.209

> <VdW6>
-3.762

> <VdW12>
3.972

> <Bond>
0.078

> <Angle>
2.428

> <Pdih>
3.616

> <Idih>
0.002

> <Tether>
0.000

$$$$
VeraChem MOL file


 13 12  0  0  0  0  0  0  0  0999 V2000     
   20.1607   17.8333   20.0416 C   0  0  0  0  0  0  0  0  0  0  0  0
   21.2857   18.1214   19.6828 O   0  5  0  0  0  0  0  0  0  0  0  0
   19.4465   17.0670   19.4273 O   0  0  0  0  0  0  0  0  0  0  0  0
   19.5896   18.4478   21.3211 C   0  0  0  0  0  0  0  0  0  0  0  0
   19.3077   17.6212   21.9841 H   0  0  0  0  0  0  0  0  0  0  0  0
   18.6646   18.9700   21.0492 H   0  0  0  0  0  0  0  0  0  0  0  0
   20.5371   19.4198   22.0717 C   0  0  0  0  0  0  0  0  0  0  0  0
   21.4646   18.8954   22.3406 H   0  0  0  0  0  0  0  0  0  0  0  0
   20.8207   20.2458   21.4045 H   0  0  0  0  0  0  0  0  0  0  0  0
   19.8780   19.9880   23.3447 C   0  0  0  0  0  0  0  0  0  0  0  0
   19.6128   19.1829   24.0426 H   0  0  0  0  0  0  0  0  0  0  0  0
   20.5627   20.6729   23.8617 H   0  0  0  0  0  0  0  0  0  0  0  0
   18.9637   20.5442   23.0991 H   0  0  0  0  0  0  0  0  0  0  0  0
  1  2  1  0  0  0  0
  1  3  2  0  0  0  0
  1  4  1  0  0  0  0
  4  5  1  0  0  0  0
  4  6  1  0  0  0  0
  4  7  1  0  0  0  0
  7  8  1  0  0  0  0
  7  9  1  0  0  0  0
  7 10  1  0  0  0  0
 10 11  1  0  0  0  0
 10 12  1  0  0  0  0
 10 13  1  0  0  0  0
M  END
> <VConfSearch Rank>
209

> <Conf_Id>
0

> <Delta U+W>
0.000

> <U+W>
-58.332

> <U>
8.390

> <W>
-66.722

> <W(PB)>
-68.455

> <W(SA)>
1.733

> <Valence>
6.333

> <Coulomb>
1.215

> <VdW>
0.842

> <VdW6>
-3.344

> <VdW12>
4.186

> <Bond>
0.091

> <Angle>
2.713

> <Pdih>
3.529

> <Idih>
0.000

> <Tether>
0.000

$$$$
VeraChem MOL file


 13 12  0  0  0  0  0  0  0  0999 V2000     
   21.3090   19.4686   23.4241 C   0  0  0  0  0  0  0  0  0  0  0  0
   20.8900   19.2402   24.5411 O   0  5  0  0  0  0  0  0  0  0  0  0
   22.1854   20.2760   23.1883 O   0  0  0  0  0  0  0  0  0  0  0  0
   20.6884   18.7149   22.2527 C   0  0  0  0  0  0  0  0  0  0  0  0
   20.3948   17.7185   22.6049 H   0  0  0  0  0  0  0  0  0  0  0  0
   21.4631   18.5727   21.4894 H   0  0  0  0  0  0  0  0  0  0  0  0
   19.4676   19.4454   21.6430 C   0  0  0  0  0  0  0  0  0  0  0  0
   18.7027   19.5911   22.4186 H   0  0  0  0  0  0  0  0  0  0  0  0
   19.7712   20.4453   21.3027 H   0  0  0  0  0  0  0  0  0  0  0  0
   18.8637   18.6586   20.4624 C   0  0  0  0  0  0  0  0  0  0  0  0
   18.0002   19.1918   20.0438 H   0  0  0  0  0  0  0  0  0  0  0  0
   19.6017   18.5259   19.6604 H   0  0  0  0  0  0  0  0  0  0  0  0
   18.5250   17.6652   20.7848 H   0  0  0  0  0  0  0  0  0  0  0  0
  1  2  1  0  0  0  0
  1  3  2  0  0  0  0
  1  4  1  0  0  0  0
  4  5  1  0  0  0  0
  4  6  1  0  0  0  0
  4  7  1  0  0  0  0
  7  8  1  0  0  0  0
  7  9  1  0  0  0  0
  7 10  1  0  0  0  0
 10 11  1  0  0  0  0
 10 12  1  0  0  0  0
 10 13  1  0  0  0  0
M  END
> <VConfSearch Rank>
210

> <Conf_Id>
1

> <Delta U+W>
-1.339

> <U+W>
-59.672

> <U>
7.389

> <W>
-67.061

> <W(PB)>
-68.767

> <W(SA)>
1.707

> <Valence>
5.822

> <Coulomb>
1.255

> <VdW>
0.312

> <VdW6>
-3.061

> <VdW12>
3.372

> <Bond>
0.059

> <Angle>
2.241

> <Pdih>
3.522

> <Idih>
0.000

> <Tether>
0.000

$$$$
VeraChem MOL file


 13 12  0  0  0  0  0  0  0  0999 V2000     
   19.1398   18.1382   23.2426 C   0  0  0  0  0  0  0  0  0  0  0  0
   19.7579   17.5851   24.1304 O   0  5  0  0  0  0  0  0  0  0  0  0
   18.1119   18.7585   23.4284 O   0  0  0  0  0  0  0  0  0  0  0  0
   19.6654   18.0154   21.8145 C   0  0  0  0  0  0  0  0  0  0  0  0
   18.8580   18.2764   21.1193 H   0  0  0  0  0  0  0  0  0  0  0  0
   19.9018   16.9586   21.6428 H   0  0  0  0  0  0  0  0  0  0  0  0
   20.9201   18.8783   21.5236 C   0  0  0  0  0  0  0  0  0  0  0  0
   21.7080   18.6384   22.2513 H   0  0  0  0  0  0  0  0  0  0  0  0
   21.3152   18.6162   20.5327 H   0  0  0  0  0  0  0  0  0  0  0  0
   20.6183   20.3907   21.5620 C   0  0  0  0  0  0  0  0  0  0  0  0
   20.2621   20.6971   22.5545 H   0  0  0  0  0  0  0  0  0  0  0  0
   21.5214   20.9712   21.3329 H   0  0  0  0  0  0  0  0  0  0  0  0
   19.8482   20.6560   20.8258 H   0  0  0  0  0  0  0  0  0  0  0  0
  1  2  1  0  0  0  0
  1  3  2  0  0  0  0
  1  4  1  0  0  0  0
  4  5  1  0  0  0  0
  4  6  1  0  0  0  0
  4  7  1  0  0  0  0
  7  8  1  0  0  0  0
  7  9  1  0  0  0  0
  7 10  1  0  0  0  0
 10 11  1  0  0  0  0
 10 12  1  0  0  0  0
 10 13  1  0  0  0  0
M  END
> <VConfSearch Rank>
211

> <Conf_Id>
4

> <Delta U+W>
0.281

> <U+W>
-58.051

> <U>
9.781

> <W>
-67.832

> <W(PB)>
-69.535

> <W(SA)>
1.703

> <Valence>
6.123

> <Coulomb>
3.449

> <VdW>
0.209

> <VdW6>
-3.762

> <VdW12>
3.972

> <Bond>
0.078

> <Angle>
2.428

> <Pdih>
3.616

> <Idih>
0.002

> <Tether>
0.000

$$$$
VeraChem MOL file


 13 12  0  0  0  0  0  0  0  0999 V2000     
   20.8828   20.5410   22.3837 C   0  0  0  0  0  0  0  0  0  0  0  0
   21.4397   20.4689   23.4610 O   0  5  0  0  0  0  0  0  0  0  0  0
   21.3279   21.1638   21.4402 O   0  0  0  0  0  0  0  0  0  0  0  0
   19.5356   19.8431   22.2150 C   0  0  0  0  0  0  0  0  0  0  0  0
   18.8494   20.5637   21.7542 H   0  0  0  0  0  0  0  0  0  0  0  0
   19.1323   19.6126   23.2087 H   0  0  0  0  0  0  0  0  0  0  0  0
   19.5906   18.5578   21.3498 C   0  0  0  0  0  0  0  0  0  0  0  0
   18.5666   18.2097   21.1569 H   0  0  0  0  0  0  0  0  0  0  0  0
   20.0341   18.7916   20.3718 H   0  0  0  0  0  0  0  0  0  0  0  0
   20.3890   17.4244   22.0265 C   0  0  0  0  0  0  0  0  0  0  0  0
   19.9489   17.1595   22.9968 H   0  0  0  0  0  0  0  0  0  0  0  0
   20.3918   16.5245   21.3978 H   0  0  0  0  0  0  0  0  0  0  0  0
   21.4324   17.7226   22.1946 H   0  0  0  0  0  0  0  0  0  0  0  0
  1  2  1  0  0  0  0
  1  3  2  0  0  0  0
  1  4  1  0  0  0  0
  4  5  1  0  0  0  0
  4  6  1  0  0  0  0
  4  7  1  0  0  0  0
  7  8  1  0  0  0  0
  7  9  1  0  0  0  0
  7 10  1  0  0  0  0
 10 11  1  0  0  0  0
 10 12  1  0  0  0  0
 10 13  1  0  0  0  0
M  END
> <VConfSearch Rank>
212

> <Conf_Id>
36

> <Delta U+W>
0.272

> <U+W>
-58.060

> <U>
9.781

> <W>
-67.841

> <W(PB)>
-69.537

> <W(SA)>
1.696

> <Valence>
6.123

> <Coulomb>
3.449

> <VdW>
0.209

> <VdW6>
-3.762

> <VdW12>
3.972

> <Bond>
0.078

> <Angle>
2.428

> <Pdih>
3.616

> <Idih>
0.002

> <Tether>
0.000

$$$$
VeraChem MOL file


 13 12  0  0  0  0  0  0  0  0999 V2000     
   18.5619   17.9652   22.9790 C   0  0  0  0  0  0  0  0  0  0  0  0
   19.2813   17.2201   23.6152 O   0  5  0  0  0  0  0  0  0  0  0  0
   17.3535   17.9799   23.0991 O   0  0  0  0  0  0  0  0  0  0  0  0
   19.1763   18.9404   21.9730 C   0  0  0  0  0  0  0  0  0  0  0  0
   18.8637   19.9506   22.2629 H   0  0  0  0  0  0  0  0  0  0  0  0
   18.7229   18.7328   20.9964 H   0  0  0  0  0  0  0  0  0  0  0  0
   20.7219   18.8859   21.8536 C   0  0  0  0  0  0  0  0  0  0  0  0
   21.1742   19.0913   22.8339 H   0  0  0  0  0  0  0  0  0  0  0  0
   21.0333   17.8720   21.5659 H   0  0  0  0  0  0  0  0  0  0  0  0
   21.2493   19.9006   20.8192 C   0  0  0  0  0  0  0  0  0  0  0  0
   20.9773   20.9264   21.1010 H   0  0  0  0  0  0  0  0  0  0  0  0
   22.3436   19.8474   20.7488 H   0  0  0  0  0  0  0  0  0  0  0  0
   20.8352   19.6972   19.8229 H   0  0  0  0  0  0  0  0  0  0  0  0
  1  2  1  0  0  0  0
  1  3  2  0  0  0  0
  1  4  1  0  0  0  0
  4  5  1  0  0  0  0
  4  6  1  0  0  0  0
  4  7  1  0  0  0  0
  7  8  1  0  0  0  0
  7  9  1  0  0  0  0
  7 10  1  0  0  0  0
 10 11  1  0  0  0  0
 10 12  1  0  0  0  0
 10 13  1  0  0  0  0
M  END
> <VConfSearch Rank>
213

> <Conf_Id>
0

> <Delta U+W>
0.000

> <U+W>
-58.332

> <U>
8.390

> <W>
-66.722

> <W(PB)>
-68.455

> <W(SA)>
1.733

> <Valence>
6.333

> <Coulomb>
1.215

> <VdW>
0.842

> <VdW6>
-3.344

> <VdW12>
4.186

> <Bond>
0.091

> <Angle>
2.713

> <Pdih>
3.529

> <Idih>
0.000

> <Tether>
0.000

$$$$
VeraChem MOL file


 13 12  0  0  0  0  0  0  0  0999 V2000     
   20.6535   17.2853   22.8024 C   0  0  0  0  0  0  0  0  0  0  0  0
   21.5563   16.6828   22.2572 O   0  5  0  0  0  0  0  0  0  0  0  0
   19.8632   16.7647   23.5639 O   0  0  0  0  0  0  0  0  0  0  0  0
   20.4920   18.7712   22.5001 C   0  0  0  0  0  0  0  0  0  0  0  0
   21.4882   19.1929   22.3189 H   0  0  0  0  0  0  0  0  0  0  0  0
   20.0920   19.2605   23.3965 H   0  0  0  0  0  0  0  0  0  0  0  0
   19.5695   19.0443   21.2876 C   0  0  0  0  0  0  0  0  0  0  0  0
   19.9745   18.5415   20.3983 H   0  0  0  0  0  0  0  0  0  0  0  0
   18.5780   18.6091   21.4761 H   0  0  0  0  0  0  0  0  0  0  0  0
   19.4270   20.5539   21.0083 C   0  0  0  0  0  0  0  0  0  0  0  0
   18.7699   20.7274   20.1461 H   0  0  0  0  0  0  0  0  0  0  0  0
   18.9956   21.0744   21.8734 H   0  0  0  0  0  0  0  0  0  0  0  0
   20.4028   21.0062   20.7873 H   0  0  0  0  0  0  0  0  0  0  0  0
  1  2  1  0  0  0  0
  1  3  2  0  0  0  0
  1  4  1  0  0  0  0
  4  5  1  0  0  0  0
  4  6  1  0  0  0  0
  4  7  1  0  0  0  0
  7  8  1  0  0  0  0
  7  9  1  0  0  0  0
  7 10  1  0  0  0  0
 10 11  1  0  0  0  0
 10 12  1  0  0  0  0
 10 13  1  0  0  0  0
M  END
> <VConfSearch Rank>
214

> <Conf_Id>
1

> <Delta U+W>
-1.339

> <U+W>
-59.672

> <U>
7.389

> <W>
-67.061

> <W(PB)>
-68.767

> <W(SA)>
1.707

> <Valence>
5.822

> <Coulomb>
1.255

> <VdW>
0.312

> <VdW6>
-3.061

> <VdW12>
3.372

> <Bond>
0.059

> <Angle>
2.241

> <Pdih>
3.522

> <Idih>
0.000

> <Tether>
0.000

$$$$
VeraChem MOL file


 13 12  0  0  0  0  0  0  0  0999 V2000     
   19.3820   17.6527   22.9610 C   0  0  0  0  0  0  0  0  0  0  0  0
   20.1535   16.8734   23.4840 O   0  5  0  0  0  0  0  0  0  0  0  0
   18.3755   18.0640   23.5030 O   0  0  0  0  0  0  0  0  0  0  0  0
   19.6764   18.1097   21.5343 C   0  0  0  0  0  0  0  0  0  0  0  0
   18.7595   18.5306   21.1038 H   0  0  0  0  0  0  0  0  0  0  0  0
   19.9200   17.2155   20.9482 H   0  0  0  0  0  0  0  0  0  0  0  0
   20.8368   19.1316   21.4220 C   0  0  0  0  0  0  0  0  0  0  0  0
   21.7391   18.7167   21.8928 H   0  0  0  0  0  0  0  0  0  0  0  0
   21.0775   19.2877   20.3616 H   0  0  0  0  0  0  0  0  0  0  0  0
   20.4912   20.4904   22.0656 C   0  0  0  0  0  0  0  0  0  0  0  0
   20.2876   20.3784   23.1388 H   0  0  0  0  0  0  0  0  0  0  0  0
   21.3247   21.1956   21.9515 H   0  0  0  0  0  0  0  0  0  0  0  0
   19.6043   20.9337   21.5941 H   0  0  0  0  0  0  0  0  0  0  0  0
  1  2  1  0  0  0  0
  1  3  2  0  0  0  0
  1  4  1  0  0  0  0
  4  5  1  0  0  0  0
  4  6  1  0  0  0  0
  4  7  1  0  0  0  0
  7  8  1  0  0  0  0
  7  9  1  0  0  0  0
  7 10  1  0  0  0  0
 10 11  1  0  0  0  0
 10 12  1  0  0  0  0
 10 13  1  0  0  0  0
M  END
> <VConfSearch Rank>
215

> <Conf_Id>
4

> <Delta U+W>
0.281

> <U+W>
-58.051

> <U>
9.781

> <W>
-67.832

> <W(PB)>
-69.535

> <W(SA)>
1.703

> <Valence>
6.123

> <Coulomb>
3.449

> <VdW>
0.209

> <VdW6>
-3.762

> <VdW12>
3.972

> <Bond>
0.078

> <Angle>
2.428

> <Pdih>
3.616

> <Idih>
0.002

> <Tether>
0.000

$$$$
VeraChem MOL file


 13 12  0  0  0  0  0  0  0  0999 V2000     
   19.0616   20.4156   22.0291 C   0  0  0  0  0  0  0  0  0  0  0  0
   18.4343   20.4392   23.0692 O   0  5  0  0  0  0  0  0  0  0  0  0
   19.5052   21.4110   21.4919 O   0  0  0  0  0  0  0  0  0  0  0  0
   19.2742   19.0699   21.3402 C   0  0  0  0  0  0  0  0  0  0  0  0
   19.0104   19.1981   20.2837 H   0  0  0  0  0  0  0  0  0  0  0  0
   18.5648   18.3452   21.7582 H   0  0  0  0  0  0  0  0  0  0  0  0
   20.7211   18.5236   21.4477 C   0  0  0  0  0  0  0  0  0  0  0  0
   20.8205   17.6390   20.8039 H   0  0  0  0  0  0  0  0  0  0  0  0
   21.4269   19.2739   21.0646 H   0  0  0  0  0  0  0  0  0  0  0  0
   21.1016   18.1404   22.8928 C   0  0  0  0  0  0  0  0  0  0  0  0
   20.4214   17.3744   23.2877 H   0  0  0  0  0  0  0  0  0  0  0  0
   22.1230   17.7397   22.9305 H   0  0  0  0  0  0  0  0  0  0  0  0
   21.0560   19.0132   23.5576 H   0  0  0  0  0  0  0  0  0  0  0  0
  1  2  1  0  0  0  0
  1  3  2  0  0  0  0
  1  4  1  0  0  0  0
  4  5  1  0  0  0  0
  4  6  1  0  0  0  0
  4  7  1  0  0  0  0
  7  8  1  0  0  0  0
  7  9  1  0  0  0  0
  7 10  1  0  0  0  0
 10 11  1  0  0  0  0
 10 12  1  0  0  0  0
 10 13  1  0  0  0  0
M  END
> <VConfSearch Rank>
216

> <Conf_Id>
36

> <Delta U+W>
0.272

> <U+W>
-58.060

> <U>
9.781

> <W>
-67.841

> <W(PB)>
-69.537

> <W(SA)>
1.696

> <Valence>
6.123

> <Coulomb>
3.449

> <VdW>
0.209

> <VdW6>
-3.762

> <VdW12>
3.972

> <Bond>
0.078

> <Angle>
2.428

> <Pdih>
3.616

> <Idih>
0.002

> <Tether>
0.000

$$$$
VeraChem MOL file


 13 12  0  0  0  0  0  0  0  0999 V2000     
   20.5556   20.4932   20.3940 C   0  0  0  0  0  0  0  0  0  0  0  0
   21.3697   21.1252   21.0384 O   0  5  0  0  0  0  0  0  0  0  0  0
   20.2489   20.7788   19.2542 O   0  0  0  0  0  0  0  0  0  0  0  0
   19.8685   19.2777   21.0192 C   0  0  0  0  0  0  0  0  0  0  0  0
   20.0746   18.4163   20.3729 H   0  0  0  0  0  0  0  0  0  0  0  0
   18.7873   19.4562   20.9799 H   0  0  0  0  0  0  0  0  0  0  0  0
   20.2914   18.9513   22.4754 C   0  0  0  0  0  0  0  0  0  0  0  0
   21.3756   18.7757   22.5132 H   0  0  0  0  0  0  0  0  0  0  0  0
   20.0869   19.8169   23.1209 H   0  0  0  0  0  0  0  0  0  0  0  0
   19.5491   17.7145   23.0204 C   0  0  0  0  0  0  0  0  0  0  0  0
   19.7624   16.8274   22.4096 H   0  0  0  0  0  0  0  0  0  0  0  0
   19.8611   17.4994   24.0508 H   0  0  0  0  0  0  0  0  0  0  0  0
   18.4633   17.8770   23.0221 H   0  0  0  0  0  0  0  0  0  0  0  0
  1  2  1  0  0  0  0
  1  3  2  0  0  0  0
  1  4  1  0  0  0  0
  4  5  1  0  0  0  0
  4  6  1  0  0  0  0
  4  7  1  0  0  0  0
  7  8  1  0  0  0  0
  7  9  1  0  0  0  0
  7 10  1  0  0  0  0
 10 11  1  0  0  0  0
 10 12  1  0  0  0  0
 10 13  1  0  0  0  0
M  END
> <VConfSearch Rank>
217

> <Conf_Id>
0

> <Delta U+W>
0.000

> <U+W>
-58.332

> <U>
8.390

> <W>
-66.722

> <W(PB)>
-68.455

> <W(SA)>
1.733

> <Valence>
6.333

> <Coulomb>
1.215

> <VdW>
0.842

> <VdW6>
-3.344

> <VdW12>
4.186

> <Bond>
0.091

> <Angle>
2.713

> <Pdih>
3.529

> <Idih>
0.000

> <Tether>
0.000

$$$$
VeraChem MOL file


 13 12  0  0  0  0  0  0  0  0999 V2000     
   19.2570   20.9684   22.2827 C   0  0  0  0  0  0  0  0  0  0  0  0
   19.1581   21.7344   21.3452 O   0  5  0  0  0  0  0  0  0  0  0  0
   19.3820   21.3311   23.4352 O   0  0  0  0  0  0  0  0  0  0  0  0
   19.2423   19.4709   21.9953 C   0  0  0  0  0  0  0  0  0  0  0  0
   18.5951   19.2962   21.1272 H   0  0  0  0  0  0  0  0  0  0  0  0
   18.7797   18.9636   22.8507 H   0  0  0  0  0  0  0  0  0  0  0  0
   20.6536   18.8922   21.7325 C   0  0  0  0  0  0  0  0  0  0  0  0
   21.1109   19.4143   20.8803 H   0  0  0  0  0  0  0  0  0  0  0  0
   21.2955   19.0816   22.6042 H   0  0  0  0  0  0  0  0  0  0  0  0
   20.6046   17.3781   21.4454 C   0  0  0  0  0  0  0  0  0  0  0  0
   21.6136   16.9865   21.2618 H   0  0  0  0  0  0  0  0  0  0  0  0
   20.1781   16.8307   22.2963 H   0  0  0  0  0  0  0  0  0  0  0  0
   19.9921   17.1660   20.5592 H   0  0  0  0  0  0  0  0  0  0  0  0
  1  2  1  0  0  0  0
  1  3  2  0  0  0  0
  1  4  1  0  0  0  0
  4  5  1  0  0  0  0
  4  6  1  0  0  0  0
  4  7  1  0  0  0  0
  7  8  1  0  0  0  0
  7  9  1  0  0  0  0
  7 10  1  0  0  0  0
 10 11  1  0  0  0  0
 10 12  1  0  0  0  0
 10 13  1  0  0  0  0
M  END
> <VConfSearch Rank>
218

> <Conf_Id>
1

> <Delta U+W>
-1.339

> <U+W>
-59.672

> <U>
7.389

> <W>
-67.061

> <W(PB)>
-68.767

> <W(SA)>
1.707

> <Valence>
5.822

> <Coulomb>
1.255

> <VdW>
0.312

> <VdW6>
-3.061

> <VdW12>
3.372

> <Bond>
0.059

> <Angle>
2.241

> <Pdih>
3.522

> <Idih>
0.000

> <Tether>
0.000

$$$$
VeraChem MOL file


 13 12  0  0  0  0  0  0  0  0999 V2000     
   18.5862   18.8741   22.9098 C   0  0  0  0  0  0  0  0  0  0  0  0
   18.2838   17.7766   23.3343 O   0  5  0  0  0  0  0  0  0  0  0  0
   18.4199   19.9027   23.5344 O   0  0  0  0  0  0  0  0  0  0  0  0
   19.1725   18.9658   21.5032 C   0  0  0  0  0  0  0  0  0  0  0  0
   19.0891   20.0026   21.1546 H   0  0  0  0  0  0  0  0  0  0  0  0
   18.5397   18.3586   20.8449 H   0  0  0  0  0  0  0  0  0  0  0  0
   20.6417   18.4829   21.3953 C   0  0  0  0  0  0  0  0  0  0  0  0
   20.7215   17.4584   21.7852 H   0  0  0  0  0  0  0  0  0  0  0  0
   20.9298   18.4407   20.3360 H   0  0  0  0  0  0  0  0  0  0  0  0
   21.6230   19.4049   22.1481 C   0  0  0  0  0  0  0  0  0  0  0  0
   21.3912   19.4359   23.2210 H   0  0  0  0  0  0  0  0  0  0  0  0
   22.6545   19.0464   22.0353 H   0  0  0  0  0  0  0  0  0  0  0  0
   21.5753   20.4303   21.7586 H   0  0  0  0  0  0  0  0  0  0  0  0
  1  2  1  0  0  0  0
  1  3  2  0  0  0  0
  1  4  1  0  0  0  0
  4  5  1  0  0  0  0
  4  6  1  0  0  0  0
  4  7  1  0  0  0  0
  7  8  1  0  0  0  0
  7  9  1  0  0  0  0
  7 10  1  0  0  0  0
 10 11  1  0  0  0  0
 10 12  1  0  0  0  0
 10 13  1  0  0  0  0
M  END
> <VConfSearch Rank>
219

> <Conf_Id>
4

> <Delta U+W>
0.281

> <U+W>
-58.051

> <U>
9.781

> <W>
-67.832

> <W(PB)>
-69.535

> <W(SA)>
1.703

> <Valence>
6.123

> <Coulomb>
3.449

> <VdW>
0.209

> <VdW6>
-3.762

> <VdW12>
3.972

> <Bond>
0.078

> <Angle>
2.428

> <Pdih>
3.616

> <Idih>
0.002

> <Tether>
0.000

$$$$
VeraChem MOL file


 13 12  0  0  0  0  0  0  0  0999 V2000     
   18.4809   18.6366   22.6480 C   0  0  0  0  0  0  0  0  0  0  0  0
   17.8077   19.6463   22.5912 O   0  5  0  0  0  0  0  0  0  0  0  0
   18.0389   17.5244   22.4387 O   0  0  0  0  0  0  0  0  0  0  0  0
   19.9514   18.7657   23.0375 C   0  0  0  0  0  0  0  0  0  0  0  0
   20.1499   18.0204   23.8169 H   0  0  0  0  0  0  0  0  0  0  0  0
   20.1089   19.7508   23.4938 H   0  0  0  0  0  0  0  0  0  0  0  0
   20.9400   18.5578   21.8616 C   0  0  0  0  0  0  0  0  0  0  0  0
   21.9646   18.5175   22.2557 H   0  0  0  0  0  0  0  0  0  0  0  0
   20.7463   17.5863   21.3857 H   0  0  0  0  0  0  0  0  0  0  0  0
   20.8491   19.6813   20.8082 C   0  0  0  0  0  0  0  0  0  0  0  0
   21.0615   20.6597   21.2587 H   0  0  0  0  0  0  0  0  0  0  0  0
   21.5743   19.5144   20.0012 H   0  0  0  0  0  0  0  0  0  0  0  0
   19.8476   19.7219   20.3599 H   0  0  0  0  0  0  0  0  0  0  0  0
  1  2  1  0  0  0  0
  1  3  2  0  0  0  0
  1  4  1  0  0  0  0
  4  5  1  0  0  0  0
  4  6  1  0  0  0  0
  4  7  1  0  0  0  0
  7  8  1  0  0  0  0
  7  9  1  0  0  0  0
  7 10  1  0  0  0  0
 10 11  1  0  0  0  0
 10 12  1  0  0  0  0
 10 13  1  0  0  0  0
M  END
> <VConfSearch Rank>
220

> <Conf_Id>
36

> <Delta U+W>
0.272

> <U+W>
-58.060

> <U>
9.781

> <W>
-67.841

> <W(PB)>
-69.537

> <W(SA)>
1.696

> <Valence>
6.123

> <Coulomb>
3.449

> <VdW>
0.209

> <VdW6>
-3.762

> <VdW12>
3.972

> <Bond>
0.078

> <Angle>
2.428

> <Pdih>
3.616

> <Idih>
0.002

> <Tether>
0.000

$$$$
VeraChem MOL file


 13 12  0  0  0  0  0  0  0  0999 V2000     
   18.8755   20.4880   22.8308 C   0  0  0  0  0  0  0  0  0  0  0  0
   17.8135   19.9060   22.9344 O   0  5  0  0  0  0  0  0  0  0  0  0
   19.0563   21.6138   23.2487 O   0  0  0  0  0  0  0  0  0  0  0  0
   20.0576   19.7977   22.1475 C   0  0  0  0  0  0  0  0  0  0  0  0
   20.8855   19.7777   22.8662 H   0  0  0  0  0  0  0  0  0  0  0  0
   20.3727   20.4364   21.3137 H   0  0  0  0  0  0  0  0  0  0  0  0
   19.7802   18.3620   21.6300 C   0  0  0  0  0  0  0  0  0  0  0  0
   19.4617   17.7244   22.4665 H   0  0  0  0  0  0  0  0  0  0  0  0
   18.9483   18.3839   20.9122 H   0  0  0  0  0  0  0  0  0  0  0  0
   21.0251   17.7482   20.9583 C   0  0  0  0  0  0  0  0  0  0  0  0
   21.8629   17.6866   21.6653 H   0  0  0  0  0  0  0  0  0  0  0  0
   20.8097   16.7335   20.5989 H   0  0  0  0  0  0  0  0  0  0  0  0
   21.3453   18.3514   20.0986 H   0  0  0  0  0  0  0  0  0  0  0  0
  1  2  1  0  0  0  0
  1  3  2  0  0  0  0
  1  4  1  0  0  0  0
  4  5  1  0  0  0  0
  4  6  1  0  0  0  0
  4  7  1  0  0  0  0
  7  8  1  0  0  0  0
  7  9  1  0  0  0  0
  7 10  1  0  0  0  0
 10 11  1  0  0  0  0
 10 12  1  0  0  0  0
 10 13  1  0  0  0  0
M  END
> <VConfSearch Rank>
221

> <Conf_Id>
0

> <Delta U+W>
0.000

> <U+W>
-58.332

> <U>
8.390

> <W>
-66.722

> <W(PB)>
-68.455

> <W(SA)>
1.733

> <Valence>
6.333

> <Coulomb>
1.215

> <VdW>
0.842

> <VdW6>
-3.344

> <VdW12>
4.186

> <Bond>
0.091

> <Angle>
2.713

> <Pdih>
3.529

> <Idih>
0.000

> <Tether>
0.000

$$$$
VeraChem MOL file


 13 12  0  0  0  0  0  0  0  0999 V2000     
   18.8895   19.7853   20.1906 C   0  0  0  0  0  0  0  0  0  0  0  0
   18.4011   18.9530   19.4529 O   0  5  0  0  0  0  0  0  0  0  0  0
   19.1528   20.9188   19.8423 O   0  0  0  0  0  0  0  0  0  0  0  0
   19.2066   19.3797   21.6260 C   0  0  0  0  0  0  0  0  0  0  0  0
   18.4613   18.6408   21.9445 H   0  0  0  0  0  0  0  0  0  0  0  0
   19.0812   20.2618   22.2656 H   0  0  0  0  0  0  0  0  0  0  0  0
   20.6332   18.8018   21.7894 C   0  0  0  0  0  0  0  0  0  0  0  0
   20.7505   17.9252   21.1371 H   0  0  0  0  0  0  0  0  0  0  0  0
   21.3705   19.5466   21.4584 H   0  0  0  0  0  0  0  0  0  0  0  0
   20.9223   18.4018   23.2502 C   0  0  0  0  0  0  0  0  0  0  0  0
   21.9374   17.9947   23.3460 H   0  0  0  0  0  0  0  0  0  0  0  0
   20.8404   19.2691   23.9185 H   0  0  0  0  0  0  0  0  0  0  0  0
   20.2157   17.6353   23.5947 H   0  0  0  0  0  0  0  0  0  0  0  0
  1  2  1  0  0  0  0
  1  3  2  0  0  0  0
  1  4  1  0  0  0  0
  4  5  1  0  0  0  0
  4  6  1  0  0  0  0
  4  7  1  0  0  0  0
  7  8  1  0  0  0  0
  7  9  1  0  0  0  0
  7 10  1  0  0  0  0
 10 11  1  0  0  0  0
 10 12  1  0  0  0  0
 10 13  1  0  0  0  0
M  END
> <VConfSearch Rank>
222

> <Conf_Id>
1

> <Delta U+W>
-1.339

> <U+W>
-59.672

> <U>
7.389

> <W>
-67.061

> <W(PB)>
-68.767

> <W(SA)>
1.707

> <Valence>
5.822

> <Coulomb>
1.255

> <VdW>
0.312

> <VdW6>
-3.061

> <VdW12>
3.372

> <Bond>
0.059

> <Angle>
2.241

> <Pdih>
3.522

> <Idih>
0.000

> <Tether>
0.000

$$$$
VeraChem MOL file


 13 12  0  0  0  0  0  0  0  0999 V2000     
   21.0837   19.3139   23.4709 C   0  0  0  0  0  0  0  0  0  0  0  0
   22.0095   18.5596   23.6944 O   0  5  0  0  0  0  0  0  0  0  0  0
   21.1408   20.5146   23.6469 O   0  0  0  0  0  0  0  0  0  0  0  0
   19.7693   18.7145   22.9771 C   0  0  0  0  0  0  0  0  0  0  0  0
   18.9687   19.4484   23.1307 H   0  0  0  0  0  0  0  0  0  0  0  0
   19.5394   17.8562   23.6198 H   0  0  0  0  0  0  0  0  0  0  0  0
   19.7971   18.2568   21.4962 C   0  0  0  0  0  0  0  0  0  0  0  0
   20.6280   17.5537   21.3442 H   0  0  0  0  0  0  0  0  0  0  0  0
   18.8731   17.7066   21.2721 H   0  0  0  0  0  0  0  0  0  0  0  0
   19.9296   19.4399   20.5151 C   0  0  0  0  0  0  0  0  0  0  0  0
   20.8666   19.9878   20.6817 H   0  0  0  0  0  0  0  0  0  0  0  0
   19.9264   19.0836   19.4767 H   0  0  0  0  0  0  0  0  0  0  0  0
   19.0961   20.1444   20.6350 H   0  0  0  0  0  0  0  0  0  0  0  0
  1  2  1  0  0  0  0
  1  3  2  0  0  0  0
  1  4  1  0  0  0  0
  4  5  1  0  0  0  0
  4  6  1  0  0  0  0
  4  7  1  0  0  0  0
  7  8  1  0  0  0  0
  7  9  1  0  0  0  0
  7 10  1  0  0  0  0
 10 11  1  0  0  0  0
 10 12  1  0  0  0  0
 10 13  1  0  0  0  0
M  END
> <VConfSearch Rank>
223

> <Conf_Id>
4

> <Delta U+W>
0.281

> <U+W>
-58.051

> <U>
9.781

> <W>
-67.832

> <W(PB)>
-69.535

> <W(SA)>
1.703

> <Valence>
6.123

> <Coulomb>
3.449

> <VdW>
0.209

> <VdW6>
-3.762

> <VdW12>
3.972

> <Bond>
0.078

> <Angle>
2.428

> <Pdih>
3.616

> <Idih>
0.002

> <Tether>
0.000

$$$$
VeraChem MOL file


 13 12  0  0  0  0  0  0  0  0999 V2000     
   18.6763   19.3183   23.0030 C   0  0  0  0  0  0  0  0  0  0  0  0
   18.3121   18.3022   23.5606 O   0  5  0  0  0  0  0  0  0  0  0  0
   18.6430   20.4160   23.5225 O   0  0  0  0  0  0  0  0  0  0  0  0
   19.1687   19.2183   21.5613 C   0  0  0  0  0  0  0  0  0  0  0  0
   18.6595   20.0013   20.9868 H   0  0  0  0  0  0  0  0  0  0  0  0
   18.8430   18.2573   21.1446 H   0  0  0  0  0  0  0  0  0  0  0  0
   20.7026   19.3770   21.4021 C   0  0  0  0  0  0  0  0  0  0  0  0
   20.9485   19.4434   20.3335 H   0  0  0  0  0  0  0  0  0  0  0  0
   21.0238   20.3234   21.8594 H   0  0  0  0  0  0  0  0  0  0  0  0
   21.4855   18.2040   22.0274 C   0  0  0  0  0  0  0  0  0  0  0  0
   21.1955   17.2497   21.5686 H   0  0  0  0  0  0  0  0  0  0  0  0
   22.5651   18.3374   21.8802 H   0  0  0  0  0  0  0  0  0  0  0  0
   21.2974   18.1350   23.1071 H   0  0  0  0  0  0  0  0  0  0  0  0
  1  2  1  0  0  0  0
  1  3  2  0  0  0  0
  1  4  1  0  0  0  0
  4  5  1  0  0  0  0
  4  6  1  0  0  0  0
  4  7  1  0  0  0  0
  7  8  1  0  0  0  0
  7  9  1  0  0  0  0
  7 10  1  0  0  0  0
 10 11  1  0  0  0  0
 10 12  1  0  0  0  0
 10 13  1  0  0  0  0
M  END
> <VConfSearch Rank>
224

> <Conf_Id>
36

> <Delta U+W>
0.272

> <U+W>
-58.060

> <U>
9.781

> <W>
-67.841

> <W(PB)>
-69.537

> <W(SA)>
1.696

> <Valence>
6.123

> <Coulomb>
3.449

> <VdW>
0.209

> <VdW6>
-3.762

> <VdW12>
3.972

> <Bond>
0.078

> <Angle>
2.428

> <Pdih>
3.616

> <Idih>
0.002

> <Tether>
0.000

$$$$
VeraChem MOL file


 13 12  0  0  0  0  0  0  0  0999 V2000     
   20.8428   17.0402   21.9978 C   0  0  0  0  0  0  0  0  0  0  0  0
   22.0182   17.2811   21.8032 O   0  5  0  0  0  0  0  0  0  0  0  0
   20.4247   15.9217   22.2185 O   0  0  0  0  0  0  0  0  0  0  0  0
   19.8187   18.1765   21.9695 C   0  0  0  0  0  0  0  0  0  0  0  0
   19.3039   18.1779   22.9376 H   0  0  0  0  0  0  0  0  0  0  0  0
   19.0701   17.9241   21.2091 H   0  0  0  0  0  0  0  0  0  0  0  0
   20.3985   19.5866   21.6841 C   0  0  0  0  0  0  0  0  0  0  0  0
   21.1505   19.8364   22.4455 H   0  0  0  0  0  0  0  0  0  0  0  0
   20.9165   19.5823   20.7148 H   0  0  0  0  0  0  0  0  0  0  0  0
   19.2958   20.6645   21.6749 C   0  0  0  0  0  0  0  0  0  0  0  0
   18.7828   20.7101   22.6446 H   0  0  0  0  0  0  0  0  0  0  0  0
   19.7247   21.6544   21.4715 H   0  0  0  0  0  0  0  0  0  0  0  0
   18.5469   20.4539   20.9000 H   0  0  0  0  0  0  0  0  0  0  0  0
  1  2  1  0  0  0  0
  1  3  2  0  0  0  0
  1  4  1  0  0  0  0
  4  5  1  0  0  0  0
  4  6  1  0  0  0  0
  4  7  1  0  0  0  0
  7  8  1  0  0  0  0
  7  9  1  0  0  0  0
  7 10  1  0  0  0  0
 10 11  1  0  0  0  0
 10 12  1  0  0  0  0
 10 13  1  0  0  0  0
M  END
> <VConfSearch Rank>
225

> <Conf_Id>
0

> <Delta U+W>
0.000

> <U+W>
-58.332

> <U>
8.390

> <W>
-66.722

> <W(PB)>
-68.455

> <W(SA)>
1.733

> <Valence>
6.333

> <Coulomb>
1.215

> <VdW>
0.842

> <VdW6>
-3.344

> <VdW12>
4.186

> <Bond>
0.091

> <Angle>
2.713

> <Pdih>
3.529

> <Idih>
0.000

> <Tether>
0.000

$$$$
VeraChem MOL file


 13 12  0  0  0  0  0  0  0  0999 V2000     
   21.9929   18.5067   21.4289 C   0  0  0  0  0  0  0  0  0  0  0  0
   22.2699   17.3316   21.5625 O   0  5  0  0  0  0  0  0  0  0  0  0
   22.8098   19.4020   21.5089 O   0  0  0  0  0  0  0  0  0  0  0  0
   20.5378   18.8793   21.1653 C   0  0  0  0  0  0  0  0  0  0  0  0
   20.0789   18.0716   20.5822 H   0  0  0  0  0  0  0  0  0  0  0  0
   20.5241   19.7790   20.5380 H   0  0  0  0  0  0  0  0  0  0  0  0
   19.7318   19.1231   22.4640 C   0  0  0  0  0  0  0  0  0  0  0  0
   19.7608   18.2193   23.0885 H   0  0  0  0  0  0  0  0  0  0  0  0
   20.2061   19.9270   23.0442 H   0  0  0  0  0  0  0  0  0  0  0  0
   18.2665   19.4973   22.1637 C   0  0  0  0  0  0  0  0  0  0  0  0
   17.7117   19.6662   23.0958 H   0  0  0  0  0  0  0  0  0  0  0  0
   18.2105   20.4159   21.5647 H   0  0  0  0  0  0  0  0  0  0  0  0
   17.7619   18.6950   21.6094 H   0  0  0  0  0  0  0  0  0  0  0  0
  1  2  1  0  0  0  0
  1  3  2  0  0  0  0
  1  4  1  0  0  0  0
  4  5  1  0  0  0  0
  4  6  1  0  0  0  0
  4  7  1  0  0  0  0
  7  8  1  0  0  0  0
  7  9  1  0  0  0  0
  7 10  1  0  0  0  0
 10 11  1  0  0  0  0
 10 12  1  0  0  0  0
 10 13  1  0  0  0  0
M  END
> <VConfSearch Rank>
226

> <Conf_Id>
1

> <Delta U+W>
-1.339

> <U+W>
-59.672

> <U>
7.389

> <W>
-67.061

> <W(PB)>
-68.767

> <W(SA)>
1.707

> <Valence>
5.822

> <Coulomb>
1.255

> <VdW>
0.312

> <VdW6>
-3.061

> <VdW12>
3.372

> <Bond>
0.059

> <Angle>
2.241

> <Pdih>
3.522

> <Idih>
0.000

> <Tether>
0.000

$$$$
VeraChem MOL file


 13 12  0  0  0  0  0  0  0  0999 V2000     
   19.8625   18.0808   23.5316 C   0  0  0  0  0  0  0  0  0  0  0  0
   20.8621   17.6791   24.0933 O   0  5  0  0  0  0  0  0  0  0  0  0
   18.9097   18.5546   24.1178 O   0  0  0  0  0  0  0  0  0  0  0  0
   19.7877   17.9492   22.0125 C   0  0  0  0  0  0  0  0  0  0  0  0
   18.7400   18.0465   21.7024 H   0  0  0  0  0  0  0  0  0  0  0  0
   20.1002   16.9296   21.7568 H   0  0  0  0  0  0  0  0  0  0  0  0
   20.6689   18.9665   21.2432 C   0  0  0  0  0  0  0  0  0  0  0  0
   21.7087   18.8892   21.5908 H   0  0  0  0  0  0  0  0  0  0  0  0
   20.6726   18.7050   20.1762 H   0  0  0  0  0  0  0  0  0  0  0  0
   20.1722   20.4182   21.4044 C   0  0  0  0  0  0  0  0  0  0  0  0
   20.1974   20.7293   22.4572 H   0  0  0  0  0  0  0  0  0  0  0  0
   20.8050   21.1093   20.8325 H   0  0  0  0  0  0  0  0  0  0  0  0
   19.1412   20.5227   21.0419 H   0  0  0  0  0  0  0  0  0  0  0  0
  1  2  1  0  0  0  0
  1  3  2  0  0  0  0
  1  4  1  0  0  0  0
  4  5  1  0  0  0  0
  4  6  1  0  0  0  0
  4  7  1  0  0  0  0
  7  8  1  0  0  0  0
  7  9  1  0  0  0  0
  7 10  1  0  0  0  0
 10 11  1  0  0  0  0
 10 12  1  0  0  0  0
 10 13  1  0  0  0  0
M  END
> <VConfSearch Rank>
227

> <Conf_Id>
4

> <Delta U+W>
0.281

> <U+W>
-58.051

> <U>
9.781

> <W>
-67.832

> <W(PB)>
-69.535

> <W(SA)>
1.703

> <Valence>
6.123

> <Coulomb>
3.449

> <VdW>
0.209

> <VdW6>
-3.762

> <VdW12>
3.972

> <Bond>
0.078

> <Angle>
2.428

> <Pdih>
3.616

> <Idih>
0.002

> <Tether>
0.000

$$$$
VeraChem MOL file


 13 12  0  0  0  0  0  0  0  0999 V2000     
   19.7492   18.0728   23.5048 C   0  0  0  0  0  0  0  0  0  0  0  0
   19.5280   18.8608   24.4025 O   0  5  0  0  0  0  0  0  0  0  0  0
   19.1487   17.0253   23.3701 O   0  0  0  0  0  0  0  0  0  0  0  0
   20.8641   18.3965   22.5133 C   0  0  0  0  0  0  0  0  0  0  0  0
   21.4875   17.4995   22.4179 H   0  0  0  0  0  0  0  0  0  0  0  0
   21.5002   19.1800   22.9433 H   0  0  0  0  0  0  0  0  0  0  0  0
   20.3614   18.8265   21.1113 C   0  0  0  0  0  0  0  0  0  0  0  0
   21.2179   18.8919   20.4263 H   0  0  0  0  0  0  0  0  0  0  0  0
   19.6925   18.0536   20.7075 H   0  0  0  0  0  0  0  0  0  0  0  0
   19.6319   20.1856   21.1368 C   0  0  0  0  0  0  0  0  0  0  0  0
   20.2906   20.9775   21.5167 H   0  0  0  0  0  0  0  0  0  0  0  0
   19.3069   20.4693   20.1274 H   0  0  0  0  0  0  0  0  0  0  0  0
   18.7422   20.1439   21.7792 H   0  0  0  0  0  0  0  0  0  0  0  0
  1  2  1  0  0  0  0
  1  3  2  0  0  0  0
  1  4  1  0  0  0  0
  4  5  1  0  0  0  0
  4  6  1  0  0  0  0
  4  7  1  0  0  0  0
  7  8  1  0  0  0  0
  7  9  1  0  0  0  0
  7 10  1  0  0  0  0
 10 11  1  0  0  0  0
 10 12  1  0  0  0  0
 10 13  1  0  0  0  0
M  END
> <VConfSearch Rank>
228

> <Conf_Id>
36

> <Delta U+W>
0.272

> <U+W>
-58.060

> <U>
9.781

> <W>
-67.841

> <W(PB)>
-69.537

> <W(SA)>
1.696

> <Valence>
6.123

> <Coulomb>
3.449

> <VdW>
0.209

> <VdW6>
-3.762

> <VdW12>
3.972

> <Bond>
0.078

> <Angle>
2.428

> <Pdih>
3.616

> <Idih>
0.002

> <Tether>
0.000

$$$$
VeraChem MOL file


 13 12  0  0  0  0  0  0  0  0999 V2000     
   18.4237   20.0862   22.7224 C   0  0  0  0  0  0  0  0  0  0  0  0
   17.8668   20.5120   21.7295 O   0  5  0  0  0  0  0  0  0  0  0  0
   18.0347   20.3173   23.8494 O   0  0  0  0  0  0  0  0  0  0  0  0
   19.6744   19.2167   22.5792 C   0  0  0  0  0  0  0  0  0  0  0  0
   19.4711   18.2646   23.0837 H   0  0  0  0  0  0  0  0  0  0  0  0
   20.4809   19.7084   23.1362 H   0  0  0  0  0  0  0  0  0  0  0  0
   20.1338   18.9483   21.1222 C   0  0  0  0  0  0  0  0  0  0  0  0
   19.3232   18.4582   20.5650 H   0  0  0  0  0  0  0  0  0  0  0  0
   20.3341   19.9038   20.6176 H   0  0  0  0  0  0  0  0  0  0  0  0
   21.3977   18.0661   21.0770 C   0  0  0  0  0  0  0  0  0  0  0  0
   21.2138   17.0917   21.5484 H   0  0  0  0  0  0  0  0  0  0  0  0
   21.7073   17.8874   20.0390 H   0  0  0  0  0  0  0  0  0  0  0  0
   22.2329   18.5489   21.6014 H   0  0  0  0  0  0  0  0  0  0  0  0
  1  2  1  0  0  0  0
  1  3  2  0  0  0  0
  1  4  1  0  0  0  0
  4  5  1  0  0  0  0
  4  6  1  0  0  0  0
  4  7  1  0  0  0  0
  7  8  1  0  0  0  0
  7  9  1  0  0  0  0
  7 10  1  0  0  0  0
 10 11  1  0  0  0  0
 10 12  1  0  0  0  0
 10 13  1  0  0  0  0
M  END
> <VConfSearch Rank>
229

> <Conf_Id>
0

> <Delta U+W>
0.000

> <U+W>
-58.332

> <U>
8.390

> <W>
-66.722

> <W(PB)>
-68.455

> <W(SA)>
1.733

> <Valence>
6.333

> <Coulomb>
1.215

> <VdW>
0.842

> <VdW6>
-3.344

> <VdW12>
4.186

> <Bond>
0.091

> <Angle>
2.713

> <Pdih>
3.529

> <Idih>
0.000

> <Tether>
0.000

$$$$
VeraChem MOL file


 13 12  0  0  0  0  0  0  0  0999 V2000     
   20.0056   19.8235   23.7930 C   0  0  0  0  0  0  0  0  0  0  0  0
   20.1573   19.0174   24.6889 O   0  5  0  0  0  0  0  0  0  0  0  0
   19.4600   20.8983   23.9427 O   0  0  0  0  0  0  0  0  0  0  0  0
   20.5105   19.4585   22.4011 C   0  0  0  0  0  0  0  0  0  0  0  0
   21.4023   18.8302   22.5153 H   0  0  0  0  0  0  0  0  0  0  0  0
   20.8273   20.3813   21.9000 H   0  0  0  0  0  0  0  0  0  0  0  0
   19.4486   18.7257   21.5461 C   0  0  0  0  0  0  0  0  0  0  0  0
   19.1317   17.8086   22.0622 H   0  0  0  0  0  0  0  0  0  0  0  0
   18.5567   19.3600   21.4467 H   0  0  0  0  0  0  0  0  0  0  0  0
   19.9895   18.3708   20.1465 C   0  0  0  0  0  0  0  0  0  0  0  0
   19.2230   17.8524   19.5557 H   0  0  0  0  0  0  0  0  0  0  0  0
   20.2854   19.2753   19.5988 H   0  0  0  0  0  0  0  0  0  0  0  0
   20.8648   17.7119   20.2191 H   0  0  0  0  0  0  0  0  0  0  0  0
  1  2  1  0  0  0  0
  1  3  2  0  0  0  0
  1  4  1  0  0  0  0
  4  5  1  0  0  0  0
  4  6  1  0  0  0  0
  4  7  1  0  0  0  0
  7  8  1  0  0  0  0
  7  9  1  0  0  0  0
  7 10  1  0  0  0  0
 10 11  1  0  0  0  0
 10 12  1  0  0  0  0
 10 13  1  0  0  0  0
M  END
> <VConfSearch Rank>
230

> <Conf_Id>
1

> <Delta U+W>
-1.339

> <U+W>
-59.672

> <U>
7.389

> <W>
-67.061

> <W(PB)>
-68.767

> <W(SA)>
1.707

> <Valence>
5.822

> <Coulomb>
1.255

> <VdW>
0.312

> <VdW6>
-3.061

> <VdW12>
3.372

> <Bond>
0.059

> <Angle>
2.241

> <Pdih>
3.522

> <Idih>
0.000

> <Tether>
0.000

$$$$
VeraChem MOL file


 13 12  0  0  0  0  0  0  0  0999 V2000     
   21.2759   20.2715   22.4291 C   0  0  0  0  0  0  0  0  0  0  0  0
   22.3160   20.2946   21.8015 O   0  5  0  0  0  0  0  0  0  0  0  0
   20.6601   21.2711   22.7416 O   0  0  0  0  0  0  0  0  0  0  0  0
   20.7355   18.9162   22.8782 C   0  0  0  0  0  0  0  0  0  0  0  0
   20.0027   19.0776   23.6784 H   0  0  0  0  0  0  0  0  0  0  0  0
   21.5711   18.3615   23.3214 H   0  0  0  0  0  0  0  0  0  0  0  0
   20.1050   18.0752   21.7387 C   0  0  0  0  0  0  0  0  0  0  0  0
   20.8334   17.9544   20.9245 H   0  0  0  0  0  0  0  0  0  0  0  0
   19.8831   17.0674   22.1156 H   0  0  0  0  0  0  0  0  0  0  0  0
   18.8083   18.7043   21.1886 C   0  0  0  0  0  0  0  0  0  0  0  0
   19.0015   19.6976   20.7622 H   0  0  0  0  0  0  0  0  0  0  0  0
   18.3779   18.0751   20.3986 H   0  0  0  0  0  0  0  0  0  0  0  0
   18.0577   18.8135   21.9824 H   0  0  0  0  0  0  0  0  0  0  0  0
  1  2  1  0  0  0  0
  1  3  2  0  0  0  0
  1  4  1  0  0  0  0
  4  5  1  0  0  0  0
  4  6  1  0  0  0  0
  4  7  1  0  0  0  0
  7  8  1  0  0  0  0
  7  9  1  0  0  0  0
  7 10  1  0  0  0  0
 10 11  1  0  0  0  0
 10 12  1  0  0  0  0
 10 13  1  0  0  0  0
M  END
> <VConfSearch Rank>
231

> <Conf_Id>
4

> <Delta U+W>
0.281

> <U+W>
-58.051

> <U>
9.781

> <W>
-67.832

> <W(PB)>
-69.535

> <W(SA)>
1.703

> <Valence>
6.123

> <Coulomb>
3.449

> <VdW>
0.209

> <VdW6>
-3.762

> <VdW12>
3.972

> <Bond>
0.078

> <Angle>
2.428

> <Pdih>
3.616

> <Idih>
0.002

> <Tether>
0.000

$$$$
VeraChem MOL file


 13 12  0  0  0  0  0  0  0  0999 V2000     
   20.8302   19.6070   23.5112 C   0  0  0  0  0  0  0  0  0  0  0  0
   20.0351   20.3471   24.0553 O   0  5  0  0  0  0  0  0  0  0  0  0
   21.5629   18.8500   24.1164 O   0  0  0  0  0  0  0  0  0  0  0  0
   20.9418   19.6544   21.9894 C   0  0  0  0  0  0  0  0  0  0  0  0
   22.0077   19.7243   21.7417 H   0  0  0  0  0  0  0  0  0  0  0  0
   20.4721   20.5787   21.6311 H   0  0  0  0  0  0  0  0  0  0  0  0
   20.3246   18.4280   21.2693 C   0  0  0  0  0  0  0  0  0  0  0  0
   20.5810   18.4708   20.2019 H   0  0  0  0  0  0  0  0  0  0  0  0
   20.7724   17.5056   21.6648 H   0  0  0  0  0  0  0  0  0  0  0  0
   18.7902   18.3673   21.4169 C   0  0  0  0  0  0  0  0  0  0  0  0
   18.3205   19.2710   21.0071 H   0  0  0  0  0  0  0  0  0  0  0  0
   18.3840   17.5001   20.8802 H   0  0  0  0  0  0  0  0  0  0  0  0
   18.4984   18.2791   22.4718 H   0  0  0  0  0  0  0  0  0  0  0  0
  1  2  1  0  0  0  0
  1  3  2  0  0  0  0
  1  4  1  0  0  0  0
  4  5  1  0  0  0  0
  4  6  1  0  0  0  0
  4  7  1  0  0  0  0
  7  8  1  0  0  0  0
  7  9  1  0  0  0  0
  7 10  1  0  0  0  0
 10 11  1  0  0  0  0
 10 12  1  0  0  0  0
 10 13  1  0  0  0  0
M  END
> <VConfSearch Rank>
232

> <Conf_Id>
36

> <Delta U+W>
0.272

> <U+W>
-58.060

> <U>
9.781

> <W>
-67.841

> <W(PB)>
-69.537

> <W(SA)>
1.696

> <Valence>
6.123

> <Coulomb>
3.449

> <VdW>
0.209

> <VdW6>
-3.762

> <VdW12>
3.972

> <Bond>
0.078

> <Angle>
2.428

> <Pdih>
3.616

> <Idih>
0.002

> <Tether>
0.000

$$$$
VeraChem MOL file


 13 12  0  0  0  0  0  0  0  0999 V2000     
   17.8919   18.9155   21.8078 C   0  0  0  0  0  0  0  0  0  0  0  0
   17.6731   18.8333   23.0005 O   0  5  0  0  0  0  0  0  0  0  0  0
   17.0098   18.9311   20.9732 O   0  0  0  0  0  0  0  0  0  0  0  0
   19.3334   19.0047   21.3031 C   0  0  0  0  0  0  0  0  0  0  0  0
   19.4191   19.9278   20.7176 H   0  0  0  0  0  0  0  0  0  0  0  0
   19.4902   18.1699   20.6097 H   0  0  0  0  0  0  0  0  0  0  0  0
   20.4256   18.9813   22.4043 C   0  0  0  0  0  0  0  0  0  0  0  0
   20.2650   19.8169   23.0998 H   0  0  0  0  0  0  0  0  0  0  0  0
   20.3360   18.0569   22.9919 H   0  0  0  0  0  0  0  0  0  0  0  0
   21.8425   19.0753   21.8032 C   0  0  0  0  0  0  0  0  0  0  0  0
   21.9676   20.0070   21.2360 H   0  0  0  0  0  0  0  0  0  0  0  0
   22.6009   19.0572   22.5968 H   0  0  0  0  0  0  0  0  0  0  0  0
   22.0392   18.2329   21.1271 H   0  0  0  0  0  0  0  0  0  0  0  0
  1  2  1  0  0  0  0
  1  3  2  0  0  0  0
  1  4  1  0  0  0  0
  4  5  1  0  0  0  0
  4  6  1  0  0  0  0
  4  7  1  0  0  0  0
  7  8  1  0  0  0  0
  7  9  1  0  0  0  0
  7 10  1  0  0  0  0
 10 11  1  0  0  0  0
 10 12  1  0  0  0  0
 10 13  1  0  0  0  0
M  END
> <VConfSearch Rank>
233

> <Conf_Id>
0

> <Delta U+W>
0.000

> <U+W>
-58.332

> <U>
8.390

> <W>
-66.722

> <W(PB)>
-68.455

> <W(SA)>
1.733

> <Valence>
6.333

> <Coulomb>
1.215

> <VdW>
0.842

> <VdW6>
-3.344

> <VdW12>
4.186

> <Bond>
0.091

> <Angle>
2.713

> <Pdih>
3.529

> <Idih>
0.000

> <Tether>
0.000

$$$$
VeraChem MOL file


 13 12  0  0  0  0  0  0  0  0999 V2000     
   20.7488   17.0766   21.6575 C   0  0  0  0  0  0  0  0  0  0  0  0
   21.9517   16.9799   21.5195 O   0  5  0  0  0  0  0  0  0  0  0  0
   19.9606   16.2304   21.2859 O   0  0  0  0  0  0  0  0  0  0  0  0
   20.1972   18.3368   22.3157 C   0  0  0  0  0  0  0  0  0  0  0  0
   20.9285   18.6834   23.0560 H   0  0  0  0  0  0  0  0  0  0  0  0
   19.2866   18.0652   22.8634 H   0  0  0  0  0  0  0  0  0  0  0  0
   19.8918   19.4645   21.3003 C   0  0  0  0  0  0  0  0  0  0  0  0
   20.8084   19.7212   20.7510 H   0  0  0  0  0  0  0  0  0  0  0  0
   19.1660   19.1030   20.5584 H   0  0  0  0  0  0  0  0  0  0  0  0
   19.3364   20.7232   21.9964 C   0  0  0  0  0  0  0  0  0  0  0  0
   19.1262   21.5108   21.2611 H   0  0  0  0  0  0  0  0  0  0  0  0
   18.4027   20.4981   22.5284 H   0  0  0  0  0  0  0  0  0  0  0  0
   20.0577   21.1210   22.7224 H   0  0  0  0  0  0  0  0  0  0  0  0
  1  2  1  0  0  0  0
  1  3  2  0  0  0  0
  1  4  1  0  0  0  0
  4  5  1  0  0  0  0
  4  6  1  0  0  0  0
  4  7  1  0  0  0  0
  7  8  1  0  0  0  0
  7  9  1  0  0  0  0
  7 10  1  0  0  0  0
 10 11  1  0  0  0  0
 10 12  1  0  0  0  0
 10 13  1  0  0  0  0
M  END
> <VConfSearch Rank>
234

> <Conf_Id>
1

> <Delta U+W>
-1.339

> <U+W>
-59.672

> <U>
7.389

> <W>
-67.061

> <W(PB)>
-68.767

> <W(SA)>
1.707

> <Valence>
5.822

> <Coulomb>
1.255

> <VdW>
0.312

> <VdW6>
-3.061

> <VdW12>
3.372

> <Bond>
0.059

> <Angle>
2.241

> <Pdih>
3.522

> <Idih>
0.000

> <Tether>
0.000

$$$$
VeraChem MOL file


 13 12  0  0  0  0  0  0  0  0999 V2000     
   18.7910   18.5443   20.8783 C   0  0  0  0  0  0  0  0  0  0  0  0
   18.6079   19.3099   19.9528 O   0  5  0  0  0  0  0  0  0  0  0  0
   18.7156   17.3364   20.7730 O   0  0  0  0  0  0  0  0  0  0  0  0
   19.0965   19.1354   22.2524 C   0  0  0  0  0  0  0  0  0  0  0  0
   18.9174   18.3661   23.0136 H   0  0  0  0  0  0  0  0  0  0  0  0
   18.3688   19.9354   22.4334 H   0  0  0  0  0  0  0  0  0  0  0  0
   20.5323   19.7027   22.3942 C   0  0  0  0  0  0  0  0  0  0  0  0
   20.7155   20.4421   21.6020 H   0  0  0  0  0  0  0  0  0  0  0  0
   20.6151   20.2375   23.3503 H   0  0  0  0  0  0  0  0  0  0  0  0
   21.6107   18.6010   22.3381 C   0  0  0  0  0  0  0  0  0  0  0  0
   21.5860   18.0733   21.3754 H   0  0  0  0  0  0  0  0  0  0  0  0
   22.6122   19.0333   22.4611 H   0  0  0  0  0  0  0  0  0  0  0  0
   21.4591   17.8625   23.1363 H   0  0  0  0  0  0  0  0  0  0  0  0
  1  2  1  0  0  0  0
  1  3  2  0  0  0  0
  1  4  1  0  0  0  0
  4  5  1  0  0  0  0
  4  6  1  0  0  0  0
  4  7  1  0  0  0  0
  7  8  1  0  0  0  0
  7  9  1  0  0  0  0
  7 10  1  0  0  0  0
 10 11  1  0  0  0  0
 10 12  1  0  0  0  0
 10 13  1  0  0  0  0
M  END
> <VConfSearch Rank>
235

> <Conf_Id>
4

> <Delta U+W>
0.281

> <U+W>
-58.051

> <U>
9.781

> <W>
-67.832

> <W(PB)>
-69.535

> <W(SA)>
1.703

> <Valence>
6.123

> <Coulomb>
3.449

> <VdW>
0.209

> <VdW6>
-3.762

> <VdW12>
3.972

> <Bond>
0.078

> <Angle>
2.428

> <Pdih>
3.616

> <Idih>
0.002

> <Tether>
0.000

$$$$
VeraChem MOL file


 13 12  0  0  0  0  0  0  0  0999 V2000     
   20.9820   20.1979   22.9712 C   0  0  0  0  0  0  0  0  0  0  0  0
   22.0895   19.7873   23.2554 O   0  5  0  0  0  0  0  0  0  0  0  0
   20.7484   21.3578   22.6952 O   0  0  0  0  0  0  0  0  0  0  0  0
   19.8148   19.2142   22.9965 C   0  0  0  0  0  0  0  0  0  0  0  0
   19.0032   19.6844   23.5645 H   0  0  0  0  0  0  0  0  0  0  0  0
   20.1189   18.3223   23.5579 H   0  0  0  0  0  0  0  0  0  0  0  0
   19.2949   18.8102   21.5930 C   0  0  0  0  0  0  0  0  0  0  0  0
   18.3702   18.2278   21.7056 H   0  0  0  0  0  0  0  0  0  0  0  0
   19.0320   19.7132   21.0242 H   0  0  0  0  0  0  0  0  0  0  0  0
   20.3224   17.9760   20.8004 C   0  0  0  0  0  0  0  0  0  0  0  0
   20.5826   17.0567   21.3414 H   0  0  0  0  0  0  0  0  0  0  0  0
   19.9162   17.6904   19.8214 H   0  0  0  0  0  0  0  0  0  0  0  0
   21.2459   18.5452   20.6303 H   0  0  0  0  0  0  0  0  0  0  0  0
  1  2  1  0  0  0  0
  1  3  2  0  0  0  0
  1  4  1  0  0  0  0
  4  5  1  0  0  0  0
  4  6  1  0  0  0  0
  4  7  1  0  0  0  0
  7  8  1  0  0  0  0
  7  9  1  0  0  0  0
  7 10  1  0  0  0  0
 10 11  1  0  0  0  0
 10 12  1  0  0  0  0
 10 13  1  0  0  0  0
M  END
> <VConfSearch Rank>
236

> <Conf_Id>
36

> <Delta U+W>
0.272

> <U+W>
-58.060

> <U>
9.781

> <W>
-67.841

> <W(PB)>
-69.537

> <W(SA)>
1.696

> <Valence>
6.123

> <Coulomb>
3.449

> <VdW>
0.209

> <VdW6>
-3.762

> <VdW12>
3.972

> <Bond>
0.078

> <Angle>
2.428

> <Pdih>
3.616

> <Idih>
0.002

> <Tether>
0.000

$$$$
VeraChem MOL file


 13 12  0  0  0  0  0  0  0  0999 V2000     
   19.6701   18.6122   23.8878 C   0  0  0  0  0  0  0  0  0  0  0  0
   20.8054   18.3908   24.2612 O   0  5  0  0  0  0  0  0  0  0  0  0
   18.7107   18.5773   24.6315 O   0  0  0  0  0  0  0  0  0  0  0  0
   19.4049   18.9531   22.4201 C   0  0  0  0  0  0  0  0  0  0  0  0
   18.9046   19.9285   22.3954 H   0  0  0  0  0  0  0  0  0  0  0  0
   18.6890   18.2163   22.0368 H   0  0  0  0  0  0  0  0  0  0  0  0
   20.6593   18.9860   21.5084 C   0  0  0  0  0  0  0  0  0  0  0  0
   21.3767   19.7229   21.8960 H   0  0  0  0  0  0  0  0  0  0  0  0
   21.1608   18.0086   21.5369 H   0  0  0  0  0  0  0  0  0  0  0  0
   20.2955   19.3369   20.0516 C   0  0  0  0  0  0  0  0  0  0  0  0
   19.8201   20.3249   19.9924 H   0  0  0  0  0  0  0  0  0  0  0  0
   21.1949   19.3555   19.4224 H   0  0  0  0  0  0  0  0  0  0  0  0
   19.6024   18.5968   19.6305 H   0  0  0  0  0  0  0  0  0  0  0  0
  1  2  1  0  0  0  0
  1  3  2  0  0  0  0
  1  4  1  0  0  0  0
  4  5  1  0  0  0  0
  4  6  1  0  0  0  0
  4  7  1  0  0  0  0
  7  8  1  0  0  0  0
  7  9  1  0  0  0  0
  7 10  1  0  0  0  0
 10 11  1  0  0  0  0
 10 12  1  0  0  0  0
 10 13  1  0  0  0  0
M  END
> <VConfSearch Rank>
237

> <Conf_Id>
0

> <Delta U+W>
0.000

> <U+W>
-58.332

> <U>
8.390

> <W>
-66.722

> <W(PB)>
-68.455

> <W(SA)>
1.733

> <Valence>
6.333

> <Coulomb>
1.215

> <VdW>
0.842

> <VdW6>
-3.344

> <VdW12>
4.186

> <Bond>
0.091

> <Angle>
2.713

> <Pdih>
3.529

> <Idih>
0.000

> <Tether>
0.000

$$$$
VeraChem MOL file


 13 12  0  0  0  0  0  0  0  0999 V2000     
   19.6067   17.9180   20.0839 C   0  0  0  0  0  0  0  0  0  0  0  0
   19.5058   18.5532   19.0535 O   0  5  0  0  0  0  0  0  0  0  0  0
   19.1036   16.8250   20.2504 O   0  0  0  0  0  0  0  0  0  0  0  0
   20.3915   18.5340   21.2372 C   0  0  0  0  0  0  0  0  0  0  0  0
   21.1970   19.1461   20.8135 H   0  0  0  0  0  0  0  0  0  0  0  0
   20.8654   17.7209   21.8005 H   0  0  0  0  0  0  0  0  0  0  0  0
   19.5102   19.3907   22.1781 C   0  0  0  0  0  0  0  0  0  0  0  0
   19.0331   20.1955   21.6014 H   0  0  0  0  0  0  0  0  0  0  0  0
   18.7015   18.7700   22.5887 H   0  0  0  0  0  0  0  0  0  0  0  0
   20.3323   19.9988   23.3322 C   0  0  0  0  0  0  0  0  0  0  0  0
   19.6908   20.6020   23.9878 H   0  0  0  0  0  0  0  0  0  0  0  0
   20.7953   19.2117   23.9418 H   0  0  0  0  0  0  0  0  0  0  0  0
   21.1294   20.6481   22.9469 H   0  0  0  0  0  0  0  0  0  0  0  0
  1  2  1  0  0  0  0
  1  3  2  0  0  0  0
  1  4  1  0  0  0  0
  4  5  1  0  0  0  0
  4  6  1  0  0  0  0
  4  7  1  0  0  0  0
  7  8  1  0  0  0  0
  7  9  1  0  0  0  0
  7 10  1  0  0  0  0
 10 11  1  0  0  0  0
 10 12  1  0  0  0  0
 10 13  1  0  0  0  0
M  END
> <VConfSearch Rank>
238

> <Conf_Id>
1

> <Delta U+W>
-1.339

> <U+W>
-59.672

> <U>
7.389

> <W>
-67.061

> <W(PB)>
-68.767

> <W(SA)>
1.707

> <Valence>
5.822

> <Coulomb>
1.255

> <VdW>
0.312

> <VdW6>
-3.061

> <VdW12>
3.372

> <Bond>
0.059

> <Angle>
2.241

> <Pdih>
3.522

> <Idih>
0.000

> <Tether>
0.000

$$$$
VeraChem MOL file


 13 12  0  0  0  0  0  0  0  0999 V2000     
   19.2192   17.9908   20.7989 C   0  0  0  0  0  0  0  0  0  0  0  0
   18.1839   18.4763   20.3883 O   0  5  0  0  0  0  0  0  0  0  0  0
   20.0005   17.3846   20.0932 O   0  0  0  0  0  0  0  0  0  0  0  0
   19.5349   18.1198   22.2870 C   0  0  0  0  0  0  0  0  0  0  0  0
   20.3021   17.3808   22.5488 H   0  0  0  0  0  0  0  0  0  0  0  0
   18.6283   17.8440   22.8387 H   0  0  0  0  0  0  0  0  0  0  0  0
   19.9899   19.5375   22.7186 C   0  0  0  0  0  0  0  0  0  0  0  0
   19.2336   20.2748   22.4149 H   0  0  0  0  0  0  0  0  0  0  0  0
   20.0483   19.5786   23.8149 H   0  0  0  0  0  0  0  0  0  0  0  0
   21.3611   19.9234   22.1262 C   0  0  0  0  0  0  0  0  0  0  0  0
   21.3274   19.9359   21.0287 H   0  0  0  0  0  0  0  0  0  0  0  0
   21.6622   20.9227   22.4666 H   0  0  0  0  0  0  0  0  0  0  0  0
   22.1369   19.2110   22.4360 H   0  0  0  0  0  0  0  0  0  0  0  0
  1  2  1  0  0  0  0
  1  3  2  0  0  0  0
  1  4  1  0  0  0  0
  4  5  1  0  0  0  0
  4  6  1  0  0  0  0
  4  7  1  0  0  0  0
  7  8  1  0  0  0  0
  7  9  1  0  0  0  0
  7 10  1  0  0  0  0
 10 11  1  0  0  0  0
 10 12  1  0  0  0  0
 10 13  1  0  0  0  0
M  END
> <VConfSearch Rank>
239

> <Conf_Id>
4

> <Delta U+W>
0.281

> <U+W>
-58.051

> <U>
9.781

> <W>
-67.832

> <W(PB)>
-69.535

> <W(SA)>
1.703

> <Valence>
6.123

> <Coulomb>
3.449

> <VdW>
0.209

> <VdW6>
-3.762

> <VdW12>
3.972

> <Bond>
0.078

> <Angle>
2.428

> <Pdih>
3.616

> <Idih>
0.002

> <Tether>
0.000

$$$$
VeraChem MOL file


 13 12  0  0  0  0  0  0  0  0999 V2000     
   19.6869   20.6879   21.7367 C   0  0  0  0  0  0  0  0  0  0  0  0
   20.0212   21.0269   20.6191 O   0  5  0  0  0  0  0  0  0  0  0  0
   18.6670   21.0697   22.2753 O   0  0  0  0  0  0  0  0  0  0  0  0
   20.6127   19.7619   22.5216 C   0  0  0  0  0  0  0  0  0  0  0  0
   20.7358   20.1937   23.5220 H   0  0  0  0  0  0  0  0  0  0  0  0
   21.6024   19.7711   22.0486 H   0  0  0  0  0  0  0  0  0  0  0  0
   20.0953   18.3060   22.6487 C   0  0  0  0  0  0  0  0  0  0  0  0
   20.7391   17.7550   23.3478 H   0  0  0  0  0  0  0  0  0  0  0  0
   19.0867   18.3110   23.0854 H   0  0  0  0  0  0  0  0  0  0  0  0
   20.0732   17.5670   21.2947 C   0  0  0  0  0  0  0  0  0  0  0  0
   21.0767   17.5309   20.8509 H   0  0  0  0  0  0  0  0  0  0  0  0
   19.7213   16.5351   21.4230 H   0  0  0  0  0  0  0  0  0  0  0  0
   19.4027   18.0669   20.5831 H   0  0  0  0  0  0  0  0  0  0  0  0
  1  2  1  0  0  0  0
  1  3  2  0  0  0  0
  1  4  1  0  0  0  0
  4  5  1  0  0  0  0
  4  6  1  0  0  0  0
  4  7  1  0  0  0  0
  7  8  1  0  0  0  0
  7  9  1  0  0  0  0
  7 10  1  0  0  0  0
 10 11  1  0  0  0  0
 10 12  1  0  0  0  0
 10 13  1  0  0  0  0
M  END
> <VConfSearch Rank>
240

> <Conf_Id>
36

> <Delta U+W>
0.272

> <U+W>
-58.060

> <U>
9.781

> <W>
-67.841

> <W(PB)>
-69.537

> <W(SA)>
1.696

> <Valence>
6.123

> <Coulomb>
3.449

> <VdW>
0.209

> <VdW6>
-3.762

> <VdW12>
3.972

> <Bond>
0.078

> <Angle>
2.428

> <Pdih>
3.616

> <Idih>
0.002

> <Tether>
0.000

$$$$
VeraChem MOL file


 13 12  0  0  0  0  0  0  0  0999 V2000     
   19.8322   17.0053   21.0931 C   0  0  0  0  0  0  0  0  0  0  0  0
   20.9959   16.6556   21.1189 O   0  5  0  0  0  0  0  0  0  0  0  0
   18.9317   16.2800   20.7220 O   0  0  0  0  0  0  0  0  0  0  0  0
   19.4522   18.4176   21.5422 C   0  0  0  0  0  0  0  0  0  0  0  0
   18.7228   18.3180   22.3548 H   0  0  0  0  0  0  0  0  0  0  0  0
   18.9344   18.8997   20.7045 H   0  0  0  0  0  0  0  0  0  0  0  0
   20.6344   19.3075   22.0075 C   0  0  0  0  0  0  0  0  0  0  0  0
   21.1537   18.8213   22.8451 H   0  0  0  0  0  0  0  0  0  0  0  0
   21.3656   19.4036   21.1927 H   0  0  0  0  0  0  0  0  0  0  0  0
   20.1568   20.7085   22.4400 C   0  0  0  0  0  0  0  0  0  0  0  0
   19.4474   20.6413   23.2752 H   0  0  0  0  0  0  0  0  0  0  0  0
   21.0063   21.3230   22.7655 H   0  0  0  0  0  0  0  0  0  0  0  0
   19.6610   21.2283   21.6096 H   0  0  0  0  0  0  0  0  0  0  0  0
  1  2  1  0  0  0  0
  1  3  2  0  0  0  0
  1  4  1  0  0  0  0
  4  5  1  0  0  0  0
  4  6  1  0  0  0  0
  4  7  1  0  0  0  0
  7  8  1  0  0  0  0
  7  9  1  0  0  0  0
  7 10  1  0  0  0  0
 10 11  1  0  0  0  0
 10 12  1  0  0  0  0
 10 13  1  0  0  0  0
M  END
> <VConfSearch Rank>
241

> <Conf_Id>
0

> <Delta U+W>
0.000

> <U+W>
-58.332

> <U>
8.390

> <W>
-66.722

> <W(PB)>
-68.455

> <W(SA)>
1.733

> <Valence>
6.333

> <Coulomb>
1.215

> <VdW>
0.842

> <VdW6>
-3.344

> <VdW12>
4.186

> <Bond>
0.091

> <Angle>
2.713

> <Pdih>
3.529

> <Idih>
0.000

> <Tether>
0.000

$$$$
VeraChem MOL file


 13 12  0  0  0  0  0  0  0  0999 V2000     
   21.8631   18.6164   20.9541 C   0  0  0  0  0  0  0  0  0  0  0  0
   22.0827   19.1461   19.8833 O   0  5  0  0  0  0  0  0  0  0  0  0
   22.4051   17.5929   21.3201 O   0  0  0  0  0  0  0  0  0  0  0  0
   20.8377   19.2608   21.8809 C   0  0  0  0  0  0  0  0  0  0  0  0
   20.8772   20.3467   21.7312 H   0  0  0  0  0  0  0  0  0  0  0  0
   21.1431   19.0659   22.9161 H   0  0  0  0  0  0  0  0  0  0  0  0
   19.3987   18.7424   21.6434 C   0  0  0  0  0  0  0  0  0  0  0  0
   19.1074   18.9341   20.6012 H   0  0  0  0  0  0  0  0  0  0  0  0
   19.3734   17.6530   21.7864 H   0  0  0  0  0  0  0  0  0  0  0  0
   18.3872   19.4126   22.5947 C   0  0  0  0  0  0  0  0  0  0  0  0
   17.3736   19.0326   22.4115 H   0  0  0  0  0  0  0  0  0  0  0  0
   18.6407   19.2099   23.6437 H   0  0  0  0  0  0  0  0  0  0  0  0
   18.3727   20.5008   22.4493 H   0  0  0  0  0  0  0  0  0  0  0  0
  1  2  1  0  0  0  0
  1  3  2  0  0  0  0
  1  4  1  0  0  0  0
  4  5  1  0  0  0  0
  4  6  1  0  0  0  0
  4  7  1  0  0  0  0
  7  8  1  0  0  0  0
  7  9  1  0  0  0  0
  7 10  1  0  0  0  0
 10 11  1  0  0  0  0
 10 12  1  0  0  0  0
 10 13  1  0  0  0  0
M  END
> <VConfSearch Rank>
242

> <Conf_Id>
1

> <Delta U+W>
-1.339

> <U+W>
-59.672

> <U>
7.389

> <W>
-67.061

> <W(PB)>
-68.767

> <W(SA)>
1.707

> <Valence>
5.822

> <Coulomb>
1.255

> <VdW>
0.312

> <VdW6>
-3.061

> <VdW12>
3.372

> <Bond>
0.059

> <Angle>
2.241

> <Pdih>
3.522

> <Idih>
0.000

> <Tether>
0.000

$$$$
VeraChem MOL file


 13 12  0  0  0  0  0  0  0  0999 V2000     
   20.1706   19.2600   23.7643 C   0  0  0  0  0  0  0  0  0  0  0  0
   20.9764   18.6031   24.3929 O   0  5  0  0  0  0  0  0  0  0  0  0
   19.9402   20.4314   23.9894 O   0  0  0  0  0  0  0  0  0  0  0  0
   19.3815   18.5649   22.6574 C   0  0  0  0  0  0  0  0  0  0  0  0
   18.5019   19.1746   22.4168 H   0  0  0  0  0  0  0  0  0  0  0  0
   19.0084   17.6185   23.0667 H   0  0  0  0  0  0  0  0  0  0  0  0
   20.2032   18.2830   21.3734 C   0  0  0  0  0  0  0  0  0  0  0  0
   21.1030   17.7072   21.6316 H   0  0  0  0  0  0  0  0  0  0  0  0
   19.6091   17.6534   20.6969 H   0  0  0  0  0  0  0  0  0  0  0  0
   20.6061   19.5759   20.6346 C   0  0  0  0  0  0  0  0  0  0  0  0
   21.2398   20.2111   21.2677 H   0  0  0  0  0  0  0  0  0  0  0  0
   21.1683   19.3406   19.7216 H   0  0  0  0  0  0  0  0  0  0  0  0
   19.7195   20.1563   20.3474 H   0  0  0  0  0  0  0  0  0  0  0  0
  1  2  1  0  0  0  0
  1  3  2  0  0  0  0
  1  4  1  0  0  0  0
  4  5  1  0  0  0  0
  4  6  1  0  0  0  0
  4  7  1  0  0  0  0
  7  8  1  0  0  0  0
  7  9  1  0  0  0  0
  7 10  1  0  0  0  0
 10 11  1  0  0  0  0
 10 12  1  0  0  0  0
 10 13  1  0  0  0  0
M  END
> <VConfSearch Rank>
243

> <Conf_Id>
4

> <Delta U+W>
0.281

> <U+W>
-58.051

> <U>
9.781

> <W>
-67.832

> <W(PB)>
-69.535

> <W(SA)>
1.703

> <Valence>
6.123

> <Coulomb>
3.449

> <VdW>
0.209

> <VdW6>
-3.762

> <VdW12>
3.972

> <Bond>
0.078

> <Angle>
2.428

> <Pdih>
3.616

> <Idih>
0.002

> <Tether>
0.000

$$$$
VeraChem MOL file


 13 12  0  0  0  0  0  0  0  0999 V2000     
   19.8582   18.4651   23.6970 C   0  0  0  0  0  0  0  0  0  0  0  0
   18.8204   18.9434   24.1097 O   0  5  0  0  0  0  0  0  0  0  0  0
   20.2442   17.3505   23.9881 O   0  0  0  0  0  0  0  0  0  0  0  0
   20.7429   19.3208   22.7938 C   0  0  0  0  0  0  0  0  0  0  0  0
   21.7658   19.2583   23.1838 H   0  0  0  0  0  0  0  0  0  0  0  0
   20.4317   20.3685   22.8875 H   0  0  0  0  0  0  0  0  0  0  0  0
   20.7320   18.8919   21.3041 C   0  0  0  0  0  0  0  0  0  0  0  0
   21.5020   19.4569   20.7612 H   0  0  0  0  0  0  0  0  0  0  0  0
   21.0049   17.8302   21.2251 H   0  0  0  0  0  0  0  0  0  0  0  0
   19.3643   19.1297   20.6312 C   0  0  0  0  0  0  0  0  0  0  0  0
   19.0823   20.1897   20.6793 H   0  0  0  0  0  0  0  0  0  0  0  0
   19.3965   18.8344   19.5744 H   0  0  0  0  0  0  0  0  0  0  0  0
   18.5758   18.5439   21.1220 H   0  0  0  0  0  0  0  0  0  0  0  0
  1  2  1  0  0  0  0
  1  3  2  0  0  0  0
  1  4  1  0  0  0  0
  4  5  1  0  0  0  0
  4  6  1  0  0  0  0
  4  7  1  0  0  0  0
  7  8  1  0  0  0  0
  7  9  1  0  0  0  0
  7 10  1  0  0  0  0
 10 11  1  0  0  0  0
 10 12  1  0  0  0  0
 10 13  1  0  0  0  0
M  END
> <VConfSearch Rank>
244

> <Conf_Id>
36

> <Delta U+W>
0.272

> <U+W>
-58.060

> <U>
9.781

> <W>
-67.841

> <W(PB)>
-69.537

> <W(SA)>
1.696

> <Valence>
6.123

> <Coulomb>
3.449

> <VdW>
0.209

> <VdW6>
-3.762

> <VdW12>
3.972

> <Bond>
0.078

> <Angle>
2.428

> <Pdih>
3.616

> <Idih>
0.002

> <Tether>
0.000

$$$$
VeraChem MOL file


 13 12  0  0  0  0  0  0  0  0999 V2000     
   19.5417   16.9372   22.0618 C   0  0  0  0  0  0  0  0  0  0  0  0
   18.6693   17.0172   22.9043 O   0  5  0  0  0  0  0  0  0  0  0  0
   19.9142   15.8803   21.5938 O   0  0  0  0  0  0  0  0  0  0  0  0
   20.2210   18.2078   21.5472 C   0  0  0  0  0  0  0  0  0  0  0  0
   20.0826   18.2360   20.4598 H   0  0  0  0  0  0  0  0  0  0  0  0
   21.2969   18.1014   21.7303 H   0  0  0  0  0  0  0  0  0  0  0  0
   19.7130   19.5330   22.1731 C   0  0  0  0  0  0  0  0  0  0  0  0
   18.6342   19.6363   21.9909 H   0  0  0  0  0  0  0  0  0  0  0  0
   19.8499   19.5014   23.2631 H   0  0  0  0  0  0  0  0  0  0  0  0
   20.4532   20.7561   21.5954 C   0  0  0  0  0  0  0  0  0  0  0  0
   20.3060   20.8278   20.5097 H   0  0  0  0  0  0  0  0  0  0  0  0
   20.0807   21.6835   22.0498 H   0  0  0  0  0  0  0  0  0  0  0  0
   21.5315   20.6918   21.7920 H   0  0  0  0  0  0  0  0  0  0  0  0
  1  2  1  0  0  0  0
  1  3  2  0  0  0  0
  1  4  1  0  0  0  0
  4  5  1  0  0  0  0
  4  6  1  0  0  0  0
  4  7  1  0  0  0  0
  7  8  1  0  0  0  0
  7  9  1  0  0  0  0
  7 10  1  0  0  0  0
 10 11  1  0  0  0  0
 10 12  1  0  0  0  0
 10 13  1  0  0  0  0
M  END
> <VConfSearch Rank>
245

> <Conf_Id>
0

> <Delta U+W>
0.000

> <U+W>
-58.332

> <U>
8.390

> <W>
-66.722

> <W(PB)>
-68.455

> <W(SA)>
1.733

> <Valence>
6.333

> <Coulomb>
1.215

> <VdW>
0.842

> <VdW6>
-3.344

> <VdW12>
4.186

> <Bond>
0.091

> <Angle>
2.713

> <Pdih>
3.529

> <Idih>
0.000

> <Tether>
0.000

$$$$
VeraChem MOL file


 13 12  0  0  0  0  0  0  0  0999 V2000     
   18.3403   19.7568   22.9394 C   0  0  0  0  0  0  0  0  0  0  0  0
   18.5796   20.1356   24.0683 O   0  5  0  0  0  0  0  0  0  0  0  0
   17.2466   19.3705   22.5789 O   0  0  0  0  0  0  0  0  0  0  0  0
   19.4790   19.7479   21.9250 C   0  0  0  0  0  0  0  0  0  0  0  0
   20.1539   20.5794   22.1620 H   0  0  0  0  0  0  0  0  0  0  0  0
   19.0546   19.9484   20.9337 H   0  0  0  0  0  0  0  0  0  0  0  0
   20.2631   18.4134   21.9086 C   0  0  0  0  0  0  0  0  0  0  0  0
   20.6750   18.2181   22.9087 H   0  0  0  0  0  0  0  0  0  0  0  0
   19.5755   17.5871   21.6800 H   0  0  0  0  0  0  0  0  0  0  0  0
   21.4061   18.4365   20.8740 C   0  0  0  0  0  0  0  0  0  0  0  0
   21.9499   17.4828   20.8772 H   0  0  0  0  0  0  0  0  0  0  0  0
   21.0156   18.6008   19.8611 H   0  0  0  0  0  0  0  0  0  0  0  0
   22.1235   19.2366   21.0992 H   0  0  0  0  0  0  0  0  0  0  0  0
  1  2  1  0  0  0  0
  1  3  2  0  0  0  0
  1  4  1  0  0  0  0
  4  5  1  0  0  0  0
  4  6  1  0  0  0  0
  4  7  1  0  0  0  0
  7  8  1  0  0  0  0
  7  9  1  0  0  0  0
  7 10  1  0  0  0  0
 10 11  1  0  0  0  0
 10 12  1  0  0  0  0
 10 13  1  0  0  0  0
M  END
> <VConfSearch Rank>
246

> <Conf_Id>
1

> <Delta U+W>
-1.339

> <U+W>
-59.672

> <U>
7.389

> <W>
-67.061

> <W(PB)>
-68.767

> <W(SA)>
1.707

> <Valence>
5.822

> <Coulomb>
1.255

> <VdW>
0.312

> <VdW6>
-3.061

> <VdW12>
3.372

> <Bond>
0.059

> <Angle>
2.241

> <Pdih>
3.522

> <Idih>
0.000

> <Tether>
0.000

$$$$
VeraChem MOL file


 13 12  0  0  0  0  0  0  0  0999 V2000     
   21.1058   20.3235   21.3559 C   0  0  0  0  0  0  0  0  0  0  0  0
   22.0678   20.6482   22.0232 O   0  5  0  0  0  0  0  0  0  0  0  0
   21.1171   20.2796   20.1419 O   0  0  0  0  0  0  0  0  0  0  0  0
   19.8054   19.9885   22.0821 C   0  0  0  0  0  0  0  0  0  0  0  0
   18.9790   20.0341   21.3622 H   0  0  0  0  0  0  0  0  0  0  0  0
   19.6282   20.7817   22.8182 H   0  0  0  0  0  0  0  0  0  0  0  0
   19.8144   18.6134   22.7980 C   0  0  0  0  0  0  0  0  0  0  0  0
   20.6698   18.5627   23.4862 H   0  0  0  0  0  0  0  0  0  0  0  0
   18.9087   18.5219   23.4130 H   0  0  0  0  0  0  0  0  0  0  0  0
   19.8721   17.4324   21.8072 C   0  0  0  0  0  0  0  0  0  0  0  0
   20.7894   17.4673   21.2045 H   0  0  0  0  0  0  0  0  0  0  0  0
   19.8572   16.4754   22.3448 H   0  0  0  0  0  0  0  0  0  0  0  0
   19.0133   17.4513   21.1235 H   0  0  0  0  0  0  0  0  0  0  0  0
  1  2  1  0  0  0  0
  1  3  2  0  0  0  0
  1  4  1  0  0  0  0
  4  5  1  0  0  0  0
  4  6  1  0  0  0  0
  4  7  1  0  0  0  0
  7  8  1  0  0  0  0
  7  9  1  0  0  0  0
  7 10  1  0  0  0  0
 10 11  1  0  0  0  0
 10 12  1  0  0  0  0
 10 13  1  0  0  0  0
M  END
> <VConfSearch Rank>
247

> <Conf_Id>
4

> <Delta U+W>
0.281

> <U+W>
-58.051

> <U>
9.781

> <W>
-67.832

> <W(PB)>
-69.535

> <W(SA)>
1.703

> <Valence>
6.123

> <Coulomb>
3.449

> <VdW>
0.209

> <VdW6>
-3.762

> <VdW12>
3.972

> <Bond>
0.078

> <Angle>
2.428

> <Pdih>
3.616

> <Idih>
0.002

> <Tether>
0.000

$$$$
VeraChem MOL file


 13 12  0  0  0  0  0  0  0  0999 V2000     
   18.5570   18.1896   22.4107 C   0  0  0  0  0  0  0  0  0  0  0  0
   17.7264   19.0435   22.6491 O   0  5  0  0  0  0  0  0  0  0  0  0
   18.3051   17.1554   21.8249 O   0  0  0  0  0  0  0  0  0  0  0  0
   19.9853   18.4089   22.9032 C   0  0  0  0  0  0  0  0  0  0  0  0
   20.3029   17.4877   23.4061 H   0  0  0  0  0  0  0  0  0  0  0  0
   19.9772   19.1987   23.6644 H   0  0  0  0  0  0  0  0  0  0  0  0
   20.9966   18.7589   21.7816 C   0  0  0  0  0  0  0  0  0  0  0  0
   22.0132   18.7498   22.1979 H   0  0  0  0  0  0  0  0  0  0  0  0
   20.9669   17.9826   21.0042 H   0  0  0  0  0  0  0  0  0  0  0  0
   20.7233   20.1395   21.1499 C   0  0  0  0  0  0  0  0  0  0  0  0
   20.7703   20.9336   21.9066 H   0  0  0  0  0  0  0  0  0  0  0  0
   21.4674   20.3645   20.3748 H   0  0  0  0  0  0  0  0  0  0  0  0
   19.7295   20.1704   20.6837 H   0  0  0  0  0  0  0  0  0  0  0  0
  1  2  1  0  0  0  0
  1  3  2  0  0  0  0
  1  4  1  0  0  0  0
  4  5  1  0  0  0  0
  4  6  1  0  0  0  0
  4  7  1  0  0  0  0
  7  8  1  0  0  0  0
  7  9  1  0  0  0  0
  7 10  1  0  0  0  0
 10 11  1  0  0  0  0
 10 12  1  0  0  0  0
 10 13  1  0  0  0  0
M  END
> <VConfSearch Rank>
248

> <Conf_Id>
36

> <Delta U+W>
0.272

> <U+W>
-58.060

> <U>
9.781

> <W>
-67.841

> <W(PB)>
-69.537

> <W(SA)>
1.696

> <Valence>
6.123

> <Coulomb>
3.449

> <VdW>
0.209

> <VdW6>
-3.762

> <VdW12>
3.972

> <Bond>
0.078

> <Angle>
2.428

> <Pdih>
3.616

> <Idih>
0.002

> <Tether>
0.000

$$$$
VeraChem MOL file


 13 12  0  0  0  0  0  0  0  0999 V2000     
   20.7528   18.7888   23.8132 C   0  0  0  0  0  0  0  0  0  0  0  0
   20.6072   19.9259   24.2172 O   0  5  0  0  0  0  0  0  0  0  0  0
   21.2083   17.8964   24.4995 O   0  0  0  0  0  0  0  0  0  0  0  0
   20.3537   18.4339   22.3795 C   0  0  0  0  0  0  0  0  0  0  0  0
   19.6184   17.6224   22.4354 H   0  0  0  0  0  0  0  0  0  0  0  0
   21.2427   18.0269   21.8831 H   0  0  0  0  0  0  0  0  0  0  0  0
   19.7771   19.6046   21.5412 C   0  0  0  0  0  0  0  0  0  0  0  0
   18.8881   20.0129   22.0418 H   0  0  0  0  0  0  0  0  0  0  0  0
   20.5144   20.4180   21.4890 H   0  0  0  0  0  0  0  0  0  0  0  0
   19.4044   19.1538   20.1144 C   0  0  0  0  0  0  0  0  0  0  0  0
   18.6447   18.3615   20.1386 H   0  0  0  0  0  0  0  0  0  0  0  0
   18.9987   19.9948   19.5370 H   0  0  0  0  0  0  0  0  0  0  0  0
   20.2840   18.7697   19.5813 H   0  0  0  0  0  0  0  0  0  0  0  0
  1  2  1  0  0  0  0
  1  3  2  0  0  0  0
  1  4  1  0  0  0  0
  4  5  1  0  0  0  0
  4  6  1  0  0  0  0
  4  7  1  0  0  0  0
  7  8  1  0  0  0  0
  7  9  1  0  0  0  0
  7 10  1  0  0  0  0
 10 11  1  0  0  0  0
 10 12  1  0  0  0  0
 10 13  1  0  0  0  0
M  END
> <VConfSearch Rank>
249

> <Conf_Id>
0

> <Delta U+W>
0.000

> <U+W>
-58.332

> <U>
8.390

> <W>
-66.722

> <W(PB)>
-68.455

> <W(SA)>
1.733

> <Valence>
6.333

> <Coulomb>
1.215

> <VdW>
0.842

> <VdW6>
-3.344

> <VdW12>
4.186

> <Bond>
0.091

> <Angle>
2.713

> <Pdih>
3.529

> <Idih>
0.000

> <Tether>
0.000

$$$$
VeraChem MOL file


 13 12  0  0  0  0  0  0  0  0999 V2000     
   21.9170   19.8973   21.9275 C   0  0  0  0  0  0  0  0  0  0  0  0
   22.8471   19.1171   21.9650 O   0  5  0  0  0  0  0  0  0  0  0  0
   21.9755   21.0324   22.3559 O   0  0  0  0  0  0  0  0  0  0  0  0
   20.5989   19.4200   21.3272 C   0  0  0  0  0  0  0  0  0  0  0  0
   20.8269   18.6998   20.5319 H   0  0  0  0  0  0  0  0  0  0  0  0
   20.1081   20.2793   20.8543 H   0  0  0  0  0  0  0  0  0  0  0  0
   19.6562   18.7775   22.3733 C   0  0  0  0  0  0  0  0  0  0  0  0
   20.1617   17.9245   22.8473 H   0  0  0  0  0  0  0  0  0  0  0  0
   19.4427   19.5042   23.1696 H   0  0  0  0  0  0  0  0  0  0  0  0
   18.3340   18.3058   21.7356 C   0  0  0  0  0  0  0  0  0  0  0  0
   17.6795   17.8535   22.4921 H   0  0  0  0  0  0  0  0  0  0  0  0
   17.7952   19.1473   21.2805 H   0  0  0  0  0  0  0  0  0  0  0  0
   18.5198   17.5554   20.9558 H   0  0  0  0  0  0  0  0  0  0  0  0
  1  2  1  0  0  0  0
  1  3  2  0  0  0  0
  1  4  1  0  0  0  0
  4  5  1  0  0  0  0
  4  6  1  0  0  0  0
  4  7  1  0  0  0  0
  7  8  1  0  0  0  0
  7  9  1  0  0  0  0
  7 10  1  0  0  0  0
 10 11  1  0  0  0  0
 10 12  1  0  0  0  0
 10 13  1  0  0  0  0
M  END
> <VConfSearch Rank>
250

> <Conf_Id>
1

> <Delta U+W>
-1.339

> <U+W>
-59.672

> <U>
7.389

> <W>
-67.061

> <W(PB)>
-68.767

> <W(SA)>
1.707

> <Valence>
5.822

> <Coulomb>
1.255

> <VdW>
0.312

> <VdW6>
-3.061

> <VdW12>
3.372

> <Bond>
0.059

> <Angle>
2.241

> <Pdih>
3.522

> <Idih>
0.000

> <Tether>
0.000

$$$$
VeraChem MOL file


 13 12  0  0  0  0  0  0  0  0999 V2000     
   21.0508   17.4904   22.4115 C   0  0  0  0  0  0  0  0  0  0  0  0
   22.2554   17.5582   22.2688 O   0  5  0  0  0  0  0  0  0  0  0  0
   20.5179   16.9245   23.3451 O   0  0  0  0  0  0  0  0  0  0  0  0
   20.1622   18.1192   21.3411 C   0  0  0  0  0  0  0  0  0  0  0  0
   19.1504   17.7065   21.4373 H   0  0  0  0  0  0  0  0  0  0  0  0
   20.5450   17.7946   20.3661 H   0  0  0  0  0  0  0  0  0  0  0  0
   20.1135   19.6680   21.3861 C   0  0  0  0  0  0  0  0  0  0  0  0
   21.1350   20.0698   21.3306 H   0  0  0  0  0  0  0  0  0  0  0  0
   19.5805   20.0373   20.4993 H   0  0  0  0  0  0  0  0  0  0  0  0
   19.4126   20.2001   22.6532 C   0  0  0  0  0  0  0  0  0  0  0  0
   19.9456   19.8861   23.5605 H   0  0  0  0  0  0  0  0  0  0  0  0
   19.3777   21.2972   22.6442 H   0  0  0  0  0  0  0  0  0  0  0  0
   18.3816   19.8280   22.7169 H   0  0  0  0  0  0  0  0  0  0  0  0
  1  2  1  0  0  0  0
  1  3  2  0  0  0  0
  1  4  1  0  0  0  0
  4  5  1  0  0  0  0
  4  6  1  0  0  0  0
  4  7  1  0  0  0  0
  7  8  1  0  0  0  0
  7  9  1  0  0  0  0
  7 10  1  0  0  0  0
 10 11  1  0  0  0  0
 10 12  1  0  0  0  0
 10 13  1  0  0  0  0
M  END
> <VConfSearch Rank>
251

> <Conf_Id>
4

> <Delta U+W>
0.281

> <U+W>
-58.051

> <U>
9.781

> <W>
-67.832

> <W(PB)>
-69.535

> <W(SA)>
1.703

> <Valence>
6.123

> <Coulomb>
3.449

> <VdW>
0.209

> <VdW6>
-3.762

> <VdW12>
3.972

> <Bond>
0.078

> <Angle>
2.428

> <Pdih>
3.616

> <Idih>
0.002

> <Tether>
0.000

$$$$
VeraChem MOL file


 13 12  0  0  0  0  0  0  0  0999 V2000     
   20.7997   20.4524   22.7322 C   0  0  0  0  0  0  0  0  0  0  0  0
   19.9890   20.9390   23.4950 O   0  5  0  0  0  0  0  0  0  0  0  0
   21.9959   20.4407   22.9446 O   0  0  0  0  0  0  0  0  0  0  0  0
   20.2951   19.8557   21.4207 C   0  0  0  0  0  0  0  0  0  0  0  0
   20.9251   20.2540   20.6165 H   0  0  0  0  0  0  0  0  0  0  0  0
   19.2775   20.2216   21.2366 H   0  0  0  0  0  0  0  0  0  0  0  0
   20.3214   18.3063   21.3769 C   0  0  0  0  0  0  0  0  0  0  0  0
   20.0891   17.9711   20.3568 H   0  0  0  0  0  0  0  0  0  0  0  0
   21.3358   17.9491   21.6033 H   0  0  0  0  0  0  0  0  0  0  0  0
   19.3143   17.6707   22.3576 C   0  0  0  0  0  0  0  0  0  0  0  0
   18.2900   17.9974   22.1348 H   0  0  0  0  0  0  0  0  0  0  0  0
   19.3444   16.5756   22.2874 H   0  0  0  0  0  0  0  0  0  0  0  0
   19.5437   17.9495   23.3947 H   0  0  0  0  0  0  0  0  0  0  0  0
  1  2  1  0  0  0  0
  1  3  2  0  0  0  0
  1  4  1  0  0  0  0
  4  5  1  0  0  0  0
  4  6  1  0  0  0  0
  4  7  1  0  0  0  0
  7  8  1  0  0  0  0
  7  9  1  0  0  0  0
  7 10  1  0  0  0  0
 10 11  1  0  0  0  0
 10 12  1  0  0  0  0
 10 13  1  0  0  0  0
M  END
> <VConfSearch Rank>
252

> <Conf_Id>
36

> <Delta U+W>
0.272

> <U+W>
-58.060

> <U>
9.781

> <W>
-67.841

> <W(PB)>
-69.537

> <W(SA)>
1.696

> <Valence>
6.123

> <Coulomb>
3.449

> <VdW>
0.209

> <VdW6>
-3.762

> <VdW12>
3.972

> <Bond>
0.078

> <Angle>
2.428

> <Pdih>
3.616

> <Idih>
0.002

> <Tether>
0.000

$$$$
VeraChem MOL file


 13 12  0  0  0  0  0  0  0  0999 V2000     
   21.5594   18.5482   20.4134 C   0  0  0  0  0  0  0  0  0  0  0  0
   21.0851   19.0451   19.4106 O   0  5  0  0  0  0  0  0  0  0  0  0
   22.6344   17.9833   20.4266 O   0  0  0  0  0  0  0  0  0  0  0  0
   20.7915   18.6206   21.7346 C   0  0  0  0  0  0  0  0  0  0  0  0
   21.4414   19.1178   22.4646 H   0  0  0  0  0  0  0  0  0  0  0  0
   20.6444   17.5921   22.0850 H   0  0  0  0  0  0  0  0  0  0  0  0
   19.4246   19.3509   21.6695 C   0  0  0  0  0  0  0  0  0  0  0  0
   19.5738   20.3805   21.3153 H   0  0  0  0  0  0  0  0  0  0  0  0
   18.7759   18.8529   20.9353 H   0  0  0  0  0  0  0  0  0  0  0  0
   18.7253   19.3742   23.0436 C   0  0  0  0  0  0  0  0  0  0  0  0
   19.3409   19.8948   23.7890 H   0  0  0  0  0  0  0  0  0  0  0  0
   17.7608   19.8944   22.9777 H   0  0  0  0  0  0  0  0  0  0  0  0
   18.5367   18.3550   23.4059 H   0  0  0  0  0  0  0  0  0  0  0  0
  1  2  1  0  0  0  0
  1  3  2  0  0  0  0
  1  4  1  0  0  0  0
  4  5  1  0  0  0  0
  4  6  1  0  0  0  0
  4  7  1  0  0  0  0
  7  8  1  0  0  0  0
  7  9  1  0  0  0  0
  7 10  1  0  0  0  0
 10 11  1  0  0  0  0
 10 12  1  0  0  0  0
 10 13  1  0  0  0  0
M  END
> <VConfSearch Rank>
253

> <Conf_Id>
0

> <Delta U+W>
0.000

> <U+W>
-58.332

> <U>
8.390

> <W>
-66.722

> <W(PB)>
-68.455

> <W(SA)>
1.733

> <Valence>
6.333

> <Coulomb>
1.215

> <VdW>
0.842

> <VdW6>
-3.344

> <VdW12>
4.186

> <Bond>
0.091

> <Angle>
2.713

> <Pdih>
3.529

> <Idih>
0.000

> <Tether>
0.000

$$$$
VeraChem MOL file


 13 12  0  0  0  0  0  0  0  0999 V2000     
   20.2916   20.2199   20.1070 C   0  0  0  0  0  0  0  0  0  0  0  0
   19.4265   20.1540   19.2569 O   0  5  0  0  0  0  0  0  0  0  0  0
   21.4400   20.5382   19.8724 O   0  0  0  0  0  0  0  0  0  0  0  0
   19.9201   19.8658   21.5430 C   0  0  0  0  0  0  0  0  0  0  0  0
   18.8760   20.1583   21.7076 H   0  0  0  0  0  0  0  0  0  0  0  0
   20.5364   20.4752   22.2152 H   0  0  0  0  0  0  0  0  0  0  0  0
   20.1091   18.3632   21.8629 C   0  0  0  0  0  0  0  0  0  0  0  0
   19.4951   17.7625   21.1773 H   0  0  0  0  0  0  0  0  0  0  0  0
   21.1559   18.0794   21.6851 H   0  0  0  0  0  0  0  0  0  0  0  0
   19.7255   18.0380   23.3204 C   0  0  0  0  0  0  0  0  0  0  0  0
   19.8660   16.9692   23.5280 H   0  0  0  0  0  0  0  0  0  0  0  0
   20.3470   18.6050   24.0260 H   0  0  0  0  0  0  0  0  0  0  0  0
   18.6735   18.2855   23.5142 H   0  0  0  0  0  0  0  0  0  0  0  0
  1  2  1  0  0  0  0
  1  3  2  0  0  0  0
  1  4  1  0  0  0  0
  4  5  1  0  0  0  0
  4  6  1  0  0  0  0
  4  7  1  0  0  0  0
  7  8  1  0  0  0  0
  7  9  1  0  0  0  0
  7 10  1  0  0  0  0
 10 11  1  0  0  0  0
 10 12  1  0  0  0  0
 10 13  1  0  0  0  0
M  END
> <VConfSearch Rank>
254

> <Conf_Id>
1

> <Delta U+W>
-1.339

> <U+W>
-59.672

> <U>
7.389

> <W>
-67.061

> <W(PB)>
-68.767

> <W(SA)>
1.707

> <Valence>
5.822

> <Coulomb>
1.255

> <VdW>
0.312

> <VdW6>
-3.061

> <VdW12>
3.372

> <Bond>
0.059

> <Angle>
2.241

> <Pdih>
3.522

> <Idih>
0.000

> <Tether>
0.000

$$$$
VeraChem MOL file


 13 12  0  0  0  0  0  0  0  0999 V2000     
   18.9492   17.8418   21.2486 C   0  0  0  0  0  0  0  0  0  0  0  0
   19.3284   17.2595   20.2520 O   0  5  0  0  0  0  0  0  0  0  0  0
   18.2783   17.3182   22.1155 O   0  0  0  0  0  0  0  0  0  0  0  0
   19.3058   19.3186   21.3995 C   0  0  0  0  0  0  0  0  0  0  0  0
   18.6438   19.7649   22.1517 H   0  0  0  0  0  0  0  0  0  0  0  0
   19.0776   19.8092   20.4458 H   0  0  0  0  0  0  0  0  0  0  0  0
   20.7882   19.5787   21.7713 C   0  0  0  0  0  0  0  0  0  0  0  0
   21.4429   19.0926   21.0344 H   0  0  0  0  0  0  0  0  0  0  0  0
   20.9906   20.6568   21.7106 H   0  0  0  0  0  0  0  0  0  0  0  0
   21.1378   19.0793   23.1884 C   0  0  0  0  0  0  0  0  0  0  0  0
   20.9891   17.9946   23.2725 H   0  0  0  0  0  0  0  0  0  0  0  0
   22.1871   19.2962   23.4271 H   0  0  0  0  0  0  0  0  0  0  0  0
   20.5094   19.5697   23.9434 H   0  0  0  0  0  0  0  0  0  0  0  0
  1  2  1  0  0  0  0
  1  3  2  0  0  0  0
  1  4  1  0  0  0  0
  4  5  1  0  0  0  0
  4  6  1  0  0  0  0
  4  7  1  0  0  0  0
  7  8  1  0  0  0  0
  7  9  1  0  0  0  0
  7 10  1  0  0  0  0
 10 11  1  0  0  0  0
 10 12  1  0  0  0  0
 10 13  1  0  0  0  0
M  END
> <VConfSearch Rank>
255

> <Conf_Id>
4

> <Delta U+W>
0.281

> <U+W>
-58.051

> <U>
9.781

> <W>
-67.832

> <W(PB)>
-69.535

> <W(SA)>
1.703

> <Valence>
6.123

> <Coulomb>
3.449

> <VdW>
0.209

> <VdW6>
-3.762

> <VdW12>
3.972

> <Bond>
0.078

> <Angle>
2.428

> <Pdih>
3.616

> <Idih>
0.002

> <Tether>
0.000

$$$$
VeraChem MOL file


 13 12  0  0  0  0  0  0  0  0999 V2000     
   19.8877   19.5876   20.3311 C   0  0  0  0  0  0  0  0  0  0  0  0
   19.4241   20.7096   20.3741 O   0  5  0  0  0  0  0  0  0  0  0  0
   20.7137   19.2353   19.5127 O   0  0  0  0  0  0  0  0  0  0  0  0
   19.3813   18.5541   21.3341 C   0  0  0  0  0  0  0  0  0  0  0  0
   19.1363   17.6452   20.7717 H   0  0  0  0  0  0  0  0  0  0  0  0
   18.4434   18.9186   21.7711 H   0  0  0  0  0  0  0  0  0  0  0  0
   20.3942   18.2089   22.4558 C   0  0  0  0  0  0  0  0  0  0  0  0
   20.0123   17.3579   23.0362 H   0  0  0  0  0  0  0  0  0  0  0  0
   21.3435   17.8845   22.0070 H   0  0  0  0  0  0  0  0  0  0  0  0
   20.6470   19.3956   23.4086 C   0  0  0  0  0  0  0  0  0  0  0  0
   19.7135   19.7218   23.8855 H   0  0  0  0  0  0  0  0  0  0  0  0
   21.3521   19.1122   24.2008 H   0  0  0  0  0  0  0  0  0  0  0  0
   21.0719   20.2520   22.8683 H   0  0  0  0  0  0  0  0  0  0  0  0
  1  2  1  0  0  0  0
  1  3  2  0  0  0  0
  1  4  1  0  0  0  0
  4  5  1  0  0  0  0
  4  6  1  0  0  0  0
  4  7  1  0  0  0  0
  7  8  1  0  0  0  0
  7  9  1  0  0  0  0
  7 10  1  0  0  0  0
 10 11  1  0  0  0  0
 10 12  1  0  0  0  0
 10 13  1  0  0  0  0
M  END
> <VConfSearch Rank>
256

> <Conf_Id>
36

> <Delta U+W>
0.272

> <U+W>
-58.060

> <U>
9.781

> <W>
-67.841

> <W(PB)>
-69.537

> <W(SA)>
1.696

> <Valence>
6.123

> <Coulomb>
3.449

> <VdW>
0.209

> <VdW6>
-3.762

> <VdW12>
3.972

> <Bond>
0.078

> <Angle>
2.428

> <Pdih>
3.616

> <Idih>
0.002

> <Tether>
0.000

$$$$
VeraChem MOL file


 13 12  0  0  0  0  0  0  0  0999 V2000     
   20.9434   20.8933   21.4775 C   0  0  0  0  0  0  0  0  0  0  0  0
   22.1148   20.5704   21.5064 O   0  5  0  0  0  0  0  0  0  0  0  0
   20.5768   22.0360   21.2910 O   0  0  0  0  0  0  0  0  0  0  0  0
   19.8574   19.8353   21.6823 C   0  0  0  0  0  0  0  0  0  0  0  0
   19.2081   19.8569   20.7989 H   0  0  0  0  0  0  0  0  0  0  0  0
   19.2472   20.1531   22.5361 H   0  0  0  0  0  0  0  0  0  0  0  0
   20.3725   18.3912   21.9168 C   0  0  0  0  0  0  0  0  0  0  0  0
   20.9861   18.0758   21.0614 H   0  0  0  0  0  0  0  0  0  0  0  0
   21.0254   18.3723   22.8007 H   0  0  0  0  0  0  0  0  0  0  0  0
   19.2103   17.3968   22.1126 C   0  0  0  0  0  0  0  0  0  0  0  0
   18.5595   17.3741   21.2286 H   0  0  0  0  0  0  0  0  0  0  0  0
   19.5940   16.3814   22.2771 H   0  0  0  0  0  0  0  0  0  0  0  0
   18.5990   17.6730   22.9818 H   0  0  0  0  0  0  0  0  0  0  0  0
  1  2  1  0  0  0  0
  1  3  2  0  0  0  0
  1  4  1  0  0  0  0
  4  5  1  0  0  0  0
  4  6  1  0  0  0  0
  4  7  1  0  0  0  0
  7  8  1  0  0  0  0
  7  9  1  0  0  0  0
  7 10  1  0  0  0  0
 10 11  1  0  0  0  0
 10 12  1  0  0  0  0
 10 13  1  0  0  0  0
M  END
> <VConfSearch Rank>
257

> <Conf_Id>
0

> <Delta U+W>
0.000

> <U+W>
-58.332

> <U>
8.390

> <W>
-66.722

> <W(PB)>
-68.455

> <W(SA)>
1.733

> <Valence>
6.333

> <Coulomb>
1.215

> <VdW>
0.842

> <VdW6>
-3.344

> <VdW12>
4.186

> <Bond>
0.091

> <Angle>
2.713

> <Pdih>
3.529

> <Idih>
0.000

> <Tether>
0.000

$$$$
VeraChem MOL file


 13 12  0  0  0  0  0  0  0  0999 V2000     
   19.7366   20.3987   23.4285 C   0  0  0  0  0  0  0  0  0  0  0  0
   20.4154   21.4051   23.3854 O   0  5  0  0  0  0  0  0  0  0  0  0
   19.2878   19.9356   24.4579 O   0  0  0  0  0  0  0  0  0  0  0  0
   19.4479   19.6668   22.1222 C   0  0  0  0  0  0  0  0  0  0  0  0
   19.3886   20.4118   21.3194 H   0  0  0  0  0  0  0  0  0  0  0  0
   18.4587   19.2000   22.2038 H   0  0  0  0  0  0  0  0  0  0  0  0
   20.5144   18.5986   21.7798 C   0  0  0  0  0  0  0  0  0  0  0  0
   21.5020   19.0757   21.7104 H   0  0  0  0  0  0  0  0  0  0  0  0
   20.5719   17.8637   22.5949 H   0  0  0  0  0  0  0  0  0  0  0  0
   20.1942   17.8776   20.4550 C   0  0  0  0  0  0  0  0  0  0  0  0
   20.9607   17.1247   20.2294 H   0  0  0  0  0  0  0  0  0  0  0  0
   19.2236   17.3672   20.5103 H   0  0  0  0  0  0  0  0  0  0  0  0
   20.1609   18.5886   19.6190 H   0  0  0  0  0  0  0  0  0  0  0  0
  1  2  1  0  0  0  0
  1  3  2  0  0  0  0
  1  4  1  0  0  0  0
  4  5  1  0  0  0  0
  4  6  1  0  0  0  0
  4  7  1  0  0  0  0
  7  8  1  0  0  0  0
  7  9  1  0  0  0  0
  7 10  1  0  0  0  0
 10 11  1  0  0  0  0
 10 12  1  0  0  0  0
 10 13  1  0  0  0  0
M  END
> <VConfSearch Rank>
258

> <Conf_Id>
1

> <Delta U+W>
-1.339

> <U+W>
-59.672

> <U>
7.389

> <W>
-67.061

> <W(PB)>
-68.767

> <W(SA)>
1.707

> <Valence>
5.822

> <Coulomb>
1.255

> <VdW>
0.312

> <VdW6>
-3.061

> <VdW12>
3.372

> <Bond>
0.059

> <Angle>
2.241

> <Pdih>
3.522

> <Idih>
0.000

> <Tether>
0.000

$$$$
VeraChem MOL file


 13 12  0  0  0  0  0  0  0  0999 V2000     
   18.4672   18.3300   21.7624 C   0  0  0  0  0  0  0  0  0  0  0  0
   18.1252   17.4426   22.5184 O   0  5  0  0  0  0  0  0  0  0  0  0
   17.7310   19.2295   21.4092 O   0  0  0  0  0  0  0  0  0  0  0  0
   19.8860   18.2901   21.2000 C   0  0  0  0  0  0  0  0  0  0  0  0
   19.9331   18.9417   20.3187 H   0  0  0  0  0  0  0  0  0  0  0  0
   20.0697   17.2680   20.8481 H   0  0  0  0  0  0  0  0  0  0  0  0
   20.9840   18.6899   22.2188 C   0  0  0  0  0  0  0  0  0  0  0  0
   20.9016   18.0587   23.1147 H   0  0  0  0  0  0  0  0  0  0  0  0
   21.9714   18.4891   21.7810 H   0  0  0  0  0  0  0  0  0  0  0  0
   20.9036   20.1773   22.6201 C   0  0  0  0  0  0  0  0  0  0  0  0
   19.9438   20.4046   23.1027 H   0  0  0  0  0  0  0  0  0  0  0  0
   21.7053   20.4315   23.3256 H   0  0  0  0  0  0  0  0  0  0  0  0
   21.0062   20.8270   21.7410 H   0  0  0  0  0  0  0  0  0  0  0  0
  1  2  1  0  0  0  0
  1  3  2  0  0  0  0
  1  4  1  0  0  0  0
  4  5  1  0  0  0  0
  4  6  1  0  0  0  0
  4  7  1  0  0  0  0
  7  8  1  0  0  0  0
  7  9  1  0  0  0  0
  7 10  1  0  0  0  0
 10 11  1  0  0  0  0
 10 12  1  0  0  0  0
 10 13  1  0  0  0  0
M  END
> <VConfSearch Rank>
259

> <Conf_Id>
4

> <Delta U+W>
0.281

> <U+W>
-58.051

> <U>
9.781

> <W>
-67.832

> <W(PB)>
-69.535

> <W(SA)>
1.703

> <Valence>
6.123

> <Coulomb>
3.449

> <VdW>
0.209

> <VdW6>
-3.762

> <VdW12>
3.972

> <Bond>
0.078

> <Angle>
2.428

> <Pdih>
3.616

> <Idih>
0.002

> <Tether>
0.000

$$$$
VeraChem MOL file


 13 12  0  0  0  0  0  0  0  0999 V2000     
   21.5146   18.1952   21.1841 C   0  0  0  0  0  0  0  0  0  0  0  0
   21.8021   18.8222   20.1840 O   0  5  0  0  0  0  0  0  0  0  0  0
   22.3402   17.6840   21.9143 O   0  0  0  0  0  0  0  0  0  0  0  0
   20.0380   18.0079   21.5238 C   0  0  0  0  0  0  0  0  0  0  0  0
   19.8854   16.9445   21.7436 H   0  0  0  0  0  0  0  0  0  0  0  0
   19.4407   18.2360   20.6325 H   0  0  0  0  0  0  0  0  0  0  0  0
   19.5505   18.8578   22.7252 C   0  0  0  0  0  0  0  0  0  0  0  0
   18.5300   18.5511   22.9924 H   0  0  0  0  0  0  0  0  0  0  0  0
   20.1816   18.6523   23.6012 H   0  0  0  0  0  0  0  0  0  0  0  0
   19.5586   20.3701   22.4205 C   0  0  0  0  0  0  0  0  0  0  0  0
   18.9157   20.6006   21.5609 H   0  0  0  0  0  0  0  0  0  0  0  0
   19.1900   20.9405   23.2829 H   0  0  0  0  0  0  0  0  0  0  0  0
   20.5736   20.7211   22.1917 H   0  0  0  0  0  0  0  0  0  0  0  0
  1  2  1  0  0  0  0
  1  3  2  0  0  0  0
  1  4  1  0  0  0  0
  4  5  1  0  0  0  0
  4  6  1  0  0  0  0
  4  7  1  0  0  0  0
  7  8  1  0  0  0  0
  7  9  1  0  0  0  0
  7 10  1  0  0  0  0
 10 11  1  0  0  0  0
 10 12  1  0  0  0  0
 10 13  1  0  0  0  0
M  END
> <VConfSearch Rank>
260

> <Conf_Id>
36

> <Delta U+W>
0.272

> <U+W>
-58.060

> <U>
9.781

> <W>
-67.841

> <W(PB)>
-69.537

> <W(SA)>
1.696

> <Valence>
6.123

> <Coulomb>
3.449

> <VdW>
0.209

> <VdW6>
-3.762

> <VdW12>
3.972

> <Bond>
0.078

> <Angle>
2.428

> <Pdih>
3.616

> <Idih>
0.002

> <Tether>
0.000

$$$$
VeraChem MOL file


 13 12  0  0  0  0  0  0  0  0999 V2000     
   20.6319   21.0114   21.4552 C   0  0  0  0  0  0  0  0  0  0  0  0
   19.6292   21.4460   20.9231 O   0  5  0  0  0  0  0  0  0  0  0  0
   21.6239   21.6852   21.6470 O   0  0  0  0  0  0  0  0  0  0  0  0
   20.6778   19.5530   21.9151 C   0  0  0  0  0  0  0  0  0  0  0  0
   20.8998   19.5548   22.9889 H   0  0  0  0  0  0  0  0  0  0  0  0
   21.5288   19.0776   21.4130 H   0  0  0  0  0  0  0  0  0  0  0  0
   19.3891   18.7316   21.6495 C   0  0  0  0  0  0  0  0  0  0  0  0
   18.5370   19.2113   22.1512 H   0  0  0  0  0  0  0  0  0  0  0  0
   19.1667   18.7335   20.5733 H   0  0  0  0  0  0  0  0  0  0  0  0
   19.5280   17.2780   22.1451 C   0  0  0  0  0  0  0  0  0  0  0  0
   19.7200   17.2479   23.2257 H   0  0  0  0  0  0  0  0  0  0  0  0
   18.6073   16.7131   21.9487 H   0  0  0  0  0  0  0  0  0  0  0  0
   20.3548   16.7663   21.6352 H   0  0  0  0  0  0  0  0  0  0  0  0
  1  2  1  0  0  0  0
  1  3  2  0  0  0  0
  1  4  1  0  0  0  0
  4  5  1  0  0  0  0
  4  6  1  0  0  0  0
  4  7  1  0  0  0  0
  7  8  1  0  0  0  0
  7  9  1  0  0  0  0
  7 10  1  0  0  0  0
 10 11  1  0  0  0  0
 10 12  1  0  0  0  0
 10 13  1  0  0  0  0
M  END
> <VConfSearch Rank>
261

> <Conf_Id>
0

> <Delta U+W>
0.000

> <U+W>
-58.332

> <U>
8.390

> <W>
-66.722

> <W(PB)>
-68.455

> <W(SA)>
1.733

> <Valence>
6.333

> <Coulomb>
1.215

> <VdW>
0.842

> <VdW6>
-3.344

> <VdW12>
4.186

> <Bond>
0.091

> <Angle>
2.713

> <Pdih>
3.529

> <Idih>
0.000

> <Tether>
0.000

$$$$
VeraChem MOL file


 13 12  0  0  0  0  0  0  0  0999 V2000     
   21.7808   18.8807   20.7247 C   0  0  0  0  0  0  0  0  0  0  0  0
   21.7548   18.1266   19.7728 O   0  5  0  0  0  0  0  0  0  0  0  0
   22.7997   19.1862   21.3111 O   0  0  0  0  0  0  0  0  0  0  0  0
   20.4608   19.4601   21.2222 C   0  0  0  0  0  0  0  0  0  0  0  0
   19.7964   19.5863   20.3587 H   0  0  0  0  0  0  0  0  0  0  0  0
   20.6581   20.4601   21.6272 H   0  0  0  0  0  0  0  0  0  0  0  0
   19.7788   18.5762   22.2943 C   0  0  0  0  0  0  0  0  0  0  0  0
   19.5952   17.5746   21.8808 H   0  0  0  0  0  0  0  0  0  0  0  0
   20.4570   18.4487   23.1496 H   0  0  0  0  0  0  0  0  0  0  0  0
   18.4484   19.1887   22.7759 C   0  0  0  0  0  0  0  0  0  0  0  0
   17.9803   18.5484   23.5350 H   0  0  0  0  0  0  0  0  0  0  0  0
   18.6104   20.1792   23.2211 H   0  0  0  0  0  0  0  0  0  0  0  0
   17.7420   19.2984   21.9425 H   0  0  0  0  0  0  0  0  0  0  0  0
  1  2  1  0  0  0  0
  1  3  2  0  0  0  0
  1  4  1  0  0  0  0
  4  5  1  0  0  0  0
  4  6  1  0  0  0  0
  4  7  1  0  0  0  0
  7  8  1  0  0  0  0
  7  9  1  0  0  0  0
  7 10  1  0  0  0  0
 10 11  1  0  0  0  0
 10 12  1  0  0  0  0
 10 13  1  0  0  0  0
M  END
> <VConfSearch Rank>
262

> <Conf_Id>
1

> <Delta U+W>
-1.339

> <U+W>
-59.672

> <U>
7.389

> <W>
-67.061

> <W(PB)>
-68.767

> <W(SA)>
1.707

> <Valence>
5.822

> <Coulomb>
1.255

> <VdW>
0.312

> <VdW6>
-3.061

> <VdW12>
3.372

> <Bond>
0.059

> <Angle>
2.241

> <Pdih>
3.522

> <Idih>
0.000

> <Tether>
0.000

$$$$
VeraChem MOL file


 13 12  0  0  0  0  0  0  0  0999 V2000     
   21.8727   18.8442   22.3735 C   0  0  0  0  0  0  0  0  0  0  0  0
   22.2672   17.7490   22.7214 O   0  5  0  0  0  0  0  0  0  0  0  0
   22.5008   19.5796   21.6382 O   0  0  0  0  0  0  0  0  0  0  0  0
   20.5338   19.3343   22.9191 C   0  0  0  0  0  0  0  0  0  0  0  0
   20.4757   20.4213   22.7835 H   0  0  0  0  0  0  0  0  0  0  0  0
   20.5338   19.1497   24.0000 H   0  0  0  0  0  0  0  0  0  0  0  0
   19.2988   18.6496   22.2792 C   0  0  0  0  0  0  0  0  0  0  0  0
   19.3873   17.5592   22.3842 H   0  0  0  0  0  0  0  0  0  0  0  0
   18.3963   18.9476   22.8302 H   0  0  0  0  0  0  0  0  0  0  0  0
   19.1250   19.0174   20.7910 C   0  0  0  0  0  0  0  0  0  0  0  0
   19.9922   18.6934   20.2005 H   0  0  0  0  0  0  0  0  0  0  0  0
   18.2323   18.5328   20.3745 H   0  0  0  0  0  0  0  0  0  0  0  0
   19.0123   20.1022   20.6654 H   0  0  0  0  0  0  0  0  0  0  0  0
  1  2  1  0  0  0  0
  1  3  2  0  0  0  0
  1  4  1  0  0  0  0
  4  5  1  0  0  0  0
  4  6  1  0  0  0  0
  4  7  1  0  0  0  0
  7  8  1  0  0  0  0
  7  9  1  0  0  0  0
  7 10  1  0  0  0  0
 10 11  1  0  0  0  0
 10 12  1  0  0  0  0
 10 13  1  0  0  0  0
M  END
> <VConfSearch Rank>
263

> <Conf_Id>
4

> <Delta U+W>
0.281

> <U+W>
-58.051

> <U>
9.781

> <W>
-67.832

> <W(PB)>
-69.535

> <W(SA)>
1.703

> <Valence>
6.123

> <Coulomb>
3.449

> <VdW>
0.209

> <VdW6>
-3.762

> <VdW12>
3.972

> <Bond>
0.078

> <Angle>
2.428

> <Pdih>
3.616

> <Idih>
0.002

> <Tether>
0.000

$$$$
VeraChem MOL file


 13 12  0  0  0  0  0  0  0  0999 V2000     
   18.8405   18.4547   23.1447 C   0  0  0  0  0  0  0  0  0  0  0  0
   19.2320   18.6084   24.2845 O   0  5  0  0  0  0  0  0  0  0  0  0
   17.6952   18.6624   22.7963 O   0  0  0  0  0  0  0  0  0  0  0  0
   19.8286   17.9396   22.1012 C   0  0  0  0  0  0  0  0  0  0  0  0
   19.3386   17.1190   21.5638 H   0  0  0  0  0  0  0  0  0  0  0  0
   20.6933   17.5070   22.6194 H   0  0  0  0  0  0  0  0  0  0  0  0
   20.2970   19.0136   21.0861 C   0  0  0  0  0  0  0  0  0  0  0  0
   20.8791   18.5278   20.2910 H   0  0  0  0  0  0  0  0  0  0  0  0
   19.4214   19.4694   20.6028 H   0  0  0  0  0  0  0  0  0  0  0  0
   21.1595   20.1109   21.7433 C   0  0  0  0  0  0  0  0  0  0  0  0
   22.0525   19.6789   22.2137 H   0  0  0  0  0  0  0  0  0  0  0  0
   21.4902   20.8429   20.9951 H   0  0  0  0  0  0  0  0  0  0  0  0
   20.5931   20.6486   22.5152 H   0  0  0  0  0  0  0  0  0  0  0  0
  1  2  1  0  0  0  0
  1  3  2  0  0  0  0
  1  4  1  0  0  0  0
  4  5  1  0  0  0  0
  4  6  1  0  0  0  0
  4  7  1  0  0  0  0
  7  8  1  0  0  0  0
  7  9  1  0  0  0  0
  7 10  1  0  0  0  0
 10 11  1  0  0  0  0
 10 12  1  0  0  0  0
 10 13  1  0  0  0  0
M  END
> <VConfSearch Rank>
264

> <Conf_Id>
36

> <Delta U+W>
0.272

> <U+W>
-58.060

> <U>
9.781

> <W>
-67.841

> <W(PB)>
-69.537

> <W(SA)>
1.696

> <Valence>
6.123

> <Coulomb>
3.449

> <VdW>
0.209

> <VdW6>
-3.762

> <VdW12>
3.972

> <Bond>
0.078

> <Angle>
2.428

> <Pdih>
3.616

> <Idih>
0.002

> <Tether>
0.000

$$$$
VeraChem MOL file


 13 12  0  0  0  0  0  0  0  0999 V2000     
   18.4607   19.6932   23.0970 C   0  0  0  0  0  0  0  0  0  0  0  0
   17.4896   19.3063   22.4769 O   0  5  0  0  0  0  0  0  0  0  0  0
   18.3772   20.2979   24.1468 O   0  0  0  0  0  0  0  0  0  0  0  0
   19.8661   19.4217   22.5566 C   0  0  0  0  0  0  0  0  0  0  0  0
   20.4120   18.8653   23.3278 H   0  0  0  0  0  0  0  0  0  0  0  0
   20.3673   20.3906   22.4456 H   0  0  0  0  0  0  0  0  0  0  0  0
   19.9235   18.6468   21.2141 C   0  0  0  0  0  0  0  0  0  0  0  0
   19.4182   17.6775   21.3268 H   0  0  0  0  0  0  0  0  0  0  0  0
   19.3734   19.2046   20.4434 H   0  0  0  0  0  0  0  0  0  0  0  0
   21.3762   18.4204   20.7490 C   0  0  0  0  0  0  0  0  0  0  0  0
   21.9395   17.8373   21.4894 H   0  0  0  0  0  0  0  0  0  0  0  0
   21.3965   17.8713   19.7986 H   0  0  0  0  0  0  0  0  0  0  0  0
   21.8943   19.3767   20.5990 H   0  0  0  0  0  0  0  0  0  0  0  0
  1  2  1  0  0  0  0
  1  3  2  0  0  0  0
  1  4  1  0  0  0  0
  4  5  1  0  0  0  0
  4  6  1  0  0  0  0
  4  7  1  0  0  0  0
  7  8  1  0  0  0  0
  7  9  1  0  0  0  0
  7 10  1  0  0  0  0
 10 11  1  0  0  0  0
 10 12  1  0  0  0  0
 10 13  1  0  0  0  0
M  END
> <VConfSearch Rank>
265

> <Conf_Id>
0

> <Delta U+W>
0.000

> <U+W>
-58.332

> <U>
8.390

> <W>
-66.722

> <W(PB)>
-68.455

> <W(SA)>
1.733

> <Valence>
6.333

> <Coulomb>
1.215

> <VdW>
0.842

> <VdW6>
-3.344

> <VdW12>
4.186

> <Bond>
0.091

> <Angle>
2.713

> <Pdih>
3.529

> <Idih>
0.000

> <Tether>
0.000

$$$$
VeraChem MOL file


 13 12  0  0  0  0  0  0  0  0999 V2000     
   21.5682   18.3809   23.0705 C   0  0  0  0  0  0  0  0  0  0  0  0
   22.5252   17.8945   22.5022 O   0  5  0  0  0  0  0  0  0  0  0  0
   21.2749   18.1331   24.2229 O   0  0  0  0  0  0  0  0  0  0  0  0
   20.6762   19.3399   22.2894 C   0  0  0  0  0  0  0  0  0  0  0  0
   21.3041   19.8830   21.5726 H   0  0  0  0  0  0  0  0  0  0  0  0
   20.2730   20.0798   22.9916 H   0  0  0  0  0  0  0  0  0  0  0  0
   19.5209   18.6232   21.5494 C   0  0  0  0  0  0  0  0  0  0  0  0
   19.9361   17.8779   20.8565 H   0  0  0  0  0  0  0  0  0  0  0  0
   18.9048   18.0749   22.2757 H   0  0  0  0  0  0  0  0  0  0  0  0
   18.6386   19.6189   20.7700 C   0  0  0  0  0  0  0  0  0  0  0  0
   17.8259   19.0926   20.2526 H   0  0  0  0  0  0  0  0  0  0  0  0
   18.1878   20.3570   21.4464 H   0  0  0  0  0  0  0  0  0  0  0  0
   19.2270   20.1585   20.0163 H   0  0  0  0  0  0  0  0  0  0  0  0
  1  2  1  0  0  0  0
  1  3  2  0  0  0  0
  1  4  1  0  0  0  0
  4  5  1  0  0  0  0
  4  6  1  0  0  0  0
  4  7  1  0  0  0  0
  7  8  1  0  0  0  0
  7  9  1  0  0  0  0
  7 10  1  0  0  0  0
 10 11  1  0  0  0  0
 10 12  1  0  0  0  0
 10 13  1  0  0  0  0
M  END
> <VConfSearch Rank>
266

> <Conf_Id>
1

> <Delta U+W>
-1.339

> <U+W>
-59.672

> <U>
7.389

> <W>
-67.061

> <W(PB)>
-68.767

> <W(SA)>
1.707

> <Valence>
5.822

> <Coulomb>
1.255

> <VdW>
0.312

> <VdW6>
-3.061

> <VdW12>
3.372

> <Bond>
0.059

> <Angle>
2.241

> <Pdih>
3.522

> <Idih>
0.000

> <Tether>
0.000

$$$$
VeraChem MOL file


 13 12  0  0  0  0  0  0  0  0999 V2000     
   20.3128   20.6858   21.5241 C   0  0  0  0  0  0  0  0  0  0  0  0
   19.6638   21.4890   22.1641 O   0  5  0  0  0  0  0  0  0  0  0  0
   21.4545   20.8857   21.1600 O   0  0  0  0  0  0  0  0  0  0  0  0
   19.6440   19.3721   21.1272 C   0  0  0  0  0  0  0  0  0  0  0  0
   20.2188   18.9176   20.3109 H   0  0  0  0  0  0  0  0  0  0  0  0
   18.6560   19.6180   20.7201 H   0  0  0  0  0  0  0  0  0  0  0  0
   19.4844   18.3635   22.2937 C   0  0  0  0  0  0  0  0  0  0  0  0
   18.9435   18.8420   23.1222 H   0  0  0  0  0  0  0  0  0  0  0  0
   18.8656   17.5201   21.9581 H   0  0  0  0  0  0  0  0  0  0  0  0
   20.8392   17.8250   22.7981 C   0  0  0  0  0  0  0  0  0  0  0  0
   21.4684   18.6383   23.1834 H   0  0  0  0  0  0  0  0  0  0  0  0
   20.6898   17.1001   23.6089 H   0  0  0  0  0  0  0  0  0  0  0  0
   21.3873   17.3227   21.9902 H   0  0  0  0  0  0  0  0  0  0  0  0
  1  2  1  0  0  0  0
  1  3  2  0  0  0  0
  1  4  1  0  0  0  0
  4  5  1  0  0  0  0
  4  6  1  0  0  0  0
  4  7  1  0  0  0  0
  7  8  1  0  0  0  0
  7  9  1  0  0  0  0
  7 10  1  0  0  0  0
 10 11  1  0  0  0  0
 10 12  1  0  0  0  0
 10 13  1  0  0  0  0
M  END
> <VConfSearch Rank>
267

> <Conf_Id>
4

> <Delta U+W>
0.281

> <U+W>
-58.051

> <U>
9.781

> <W>
-67.832

> <W(PB)>
-69.535

> <W(SA)>
1.703

> <Valence>
6.123

> <Coulomb>
3.449

> <VdW>
0.209

> <VdW6>
-3.762

> <VdW12>
3.972

> <Bond>
0.078

> <Angle>
2.428

> <Pdih>
3.616

> <Idih>
0.002

> <Tether>
0.000

$$$$
VeraChem MOL file


 13 12  0  0  0  0  0  0  0  0999 V2000     
   21.0084   18.5293   20.5055 C   0  0  0  0  0  0  0  0  0  0  0  0
   20.2183   18.2517   19.6253 O   0  5  0  0  0  0  0  0  0  0  0  0
   22.0464   19.1292   20.3087 O   0  0  0  0  0  0  0  0  0  0  0  0
   20.7005   18.0699   21.9285 C   0  0  0  0  0  0  0  0  0  0  0  0
   21.6069   17.5944   22.3219 H   0  0  0  0  0  0  0  0  0  0  0  0
   19.9275   17.2927   21.8874 H   0  0  0  0  0  0  0  0  0  0  0  0
   20.2610   19.2102   22.8823 C   0  0  0  0  0  0  0  0  0  0  0  0
   20.2079   18.8209   23.9082 H   0  0  0  0  0  0  0  0  0  0  0  0
   21.0229   20.0023   22.8842 H   0  0  0  0  0  0  0  0  0  0  0  0
   18.8909   19.8062   22.4980 C   0  0  0  0  0  0  0  0  0  0  0  0
   18.1097   19.0349   22.5116 H   0  0  0  0  0  0  0  0  0  0  0  0
   18.6009   20.5958   23.2034 H   0  0  0  0  0  0  0  0  0  0  0  0
   18.9198   20.2455   21.4920 H   0  0  0  0  0  0  0  0  0  0  0  0
  1  2  1  0  0  0  0
  1  3  2  0  0  0  0
  1  4  1  0  0  0  0
  4  5  1  0  0  0  0
  4  6  1  0  0  0  0
  4  7  1  0  0  0  0
  7  8  1  0  0  0  0
  7  9  1  0  0  0  0
  7 10  1  0  0  0  0
 10 11  1  0  0  0  0
 10 12  1  0  0  0  0
 10 13  1  0  0  0  0
M  END
> <VConfSearch Rank>
268

> <Conf_Id>
36

> <Delta U+W>
0.272

> <U+W>
-58.060

> <U>
9.781

> <W>
-67.841

> <W(PB)>
-69.537

> <W(SA)>
1.696

> <Valence>
6.123

> <Coulomb>
3.449

> <VdW>
0.209

> <VdW6>
-3.762

> <VdW12>
3.972

> <Bond>
0.078

> <Angle>
2.428

> <Pdih>
3.616

> <Idih>
0.002

> <Tether>
0.000

$$$$
VeraChem MOL file


 13 12  0  0  0  0  0  0  0  0999 V2000     
   21.7342   19.3413   20.5952 C   0  0  0  0  0  0  0  0  0  0  0  0
   21.1928   19.6472   19.5509 O   0  5  0  0  0  0  0  0  0  0  0  0
   22.9407   19.2940   20.7256 O   0  0  0  0  0  0  0  0  0  0  0  0
   20.8846   18.9943   21.8193 C   0  0  0  0  0  0  0  0  0  0  0  0
   21.1785   19.6762   22.6262 H   0  0  0  0  0  0  0  0  0  0  0  0
   21.1650   17.9829   22.1368 H   0  0  0  0  0  0  0  0  0  0  0  0
   19.3501   19.0683   21.6058 C   0  0  0  0  0  0  0  0  0  0  0  0
   19.0716   20.0819   21.2849 H   0  0  0  0  0  0  0  0  0  0  0  0
   19.0580   18.3865   20.7948 H   0  0  0  0  0  0  0  0  0  0  0  0
   18.5781   18.7033   22.8898 C   0  0  0  0  0  0  0  0  0  0  0  0
   18.8296   19.3907   23.7082 H   0  0  0  0  0  0  0  0  0  0  0  0
   17.4952   18.7613   22.7193 H   0  0  0  0  0  0  0  0  0  0  0  0
   18.8160   17.6818   23.2143 H   0  0  0  0  0  0  0  0  0  0  0  0
  1  2  1  0  0  0  0
  1  3  2  0  0  0  0
  1  4  1  0  0  0  0
  4  5  1  0  0  0  0
  4  6  1  0  0  0  0
  4  7  1  0  0  0  0
  7  8  1  0  0  0  0
  7  9  1  0  0  0  0
  7 10  1  0  0  0  0
 10 11  1  0  0  0  0
 10 12  1  0  0  0  0
 10 13  1  0  0  0  0
M  END
> <VConfSearch Rank>
269

> <Conf_Id>
0

> <Delta U+W>
0.000

> <U+W>
-58.332

> <U>
8.390

> <W>
-66.722

> <W(PB)>
-68.455

> <W(SA)>
1.733

> <Valence>
6.333

> <Coulomb>
1.215

> <VdW>
0.842

> <VdW6>
-3.344

> <VdW12>
4.186

> <Bond>
0.091

> <Angle>
2.713

> <Pdih>
3.529

> <Idih>
0.000

> <Tether>
0.000

$$$$
VeraChem MOL file


 13 12  0  0  0  0  0  0  0  0999 V2000     
   18.8457   18.6031   20.1111 C   0  0  0  0  0  0  0  0  0  0  0  0
   17.8455   19.2734   19.9507 O   0  5  0  0  0  0  0  0  0  0  0  0
   18.9922   17.4932   19.6401 O   0  0  0  0  0  0  0  0  0  0  0  0
   19.9704   19.1785   20.9652 C   0  0  0  0  0  0  0  0  0  0  0  0
   19.9773   20.2672   20.8322 H   0  0  0  0  0  0  0  0  0  0  0  0
   20.9230   18.7991   20.5760 H   0  0  0  0  0  0  0  0  0  0  0  0
   19.8300   18.8262   22.4659 C   0  0  0  0  0  0  0  0  0  0  0  0
   18.8684   19.2022   22.8423 H   0  0  0  0  0  0  0  0  0  0  0  0
   19.8143   17.7339   22.5860 H   0  0  0  0  0  0  0  0  0  0  0  0
   20.9809   19.4219   23.3013 C   0  0  0  0  0  0  0  0  0  0  0  0
   20.8642   19.1616   24.3615 H   0  0  0  0  0  0  0  0  0  0  0  0
   21.9520   19.0371   22.9628 H   0  0  0  0  0  0  0  0  0  0  0  0
   20.9987   20.5167   23.2210 H   0  0  0  0  0  0  0  0  0  0  0  0
  1  2  1  0  0  0  0
  1  3  2  0  0  0  0
  1  4  1  0  0  0  0
  4  5  1  0  0  0  0
  4  6  1  0  0  0  0
  4  7  1  0  0  0  0
  7  8  1  0  0  0  0
  7  9  1  0  0  0  0
  7 10  1  0  0  0  0
 10 11  1  0  0  0  0
 10 12  1  0  0  0  0
 10 13  1  0  0  0  0
M  END
> <VConfSearch Rank>
270

> <Conf_Id>
1

> <Delta U+W>
-1.339

> <U+W>
-59.672

> <U>
7.389

> <W>
-67.061

> <W(PB)>
-68.767

> <W(SA)>
1.707

> <Valence>
5.822

> <Coulomb>
1.255

> <VdW>
0.312

> <VdW6>
-3.061

> <VdW12>
3.372

> <Bond>
0.059

> <Angle>
2.241

> <Pdih>
3.522

> <Idih>
0.000

> <Tether>
0.000

$$$$
VeraChem MOL file


 13 12  0  0  0  0  0  0  0  0999 V2000     
   19.4171   19.1114   20.3573 C   0  0  0  0  0  0  0  0  0  0  0  0
   19.2254   20.2421   19.9564 O   0  5  0  0  0  0  0  0  0  0  0  0
   19.8339   18.2131   19.6535 O   0  0  0  0  0  0  0  0  0  0  0  0
   19.0819   18.7967   21.8131 C   0  0  0  0  0  0  0  0  0  0  0  0
   19.0007   17.7088   21.9278 H   0  0  0  0  0  0  0  0  0  0  0  0
   18.0876   19.2117   22.0168 H   0  0  0  0  0  0  0  0  0  0  0  0
   20.0979   19.3670   22.8358 C   0  0  0  0  0  0  0  0  0  0  0  0
   20.2026   20.4506   22.6849 H   0  0  0  0  0  0  0  0  0  0  0  0
   19.7036   19.2264   23.8515 H   0  0  0  0  0  0  0  0  0  0  0  0
   21.4808   18.6908   22.7340 C   0  0  0  0  0  0  0  0  0  0  0  0
   21.9257   18.8494   21.7427 H   0  0  0  0  0  0  0  0  0  0  0  0
   22.1690   19.1029   23.4833 H   0  0  0  0  0  0  0  0  0  0  0  0
   21.4020   17.6089   22.9038 H   0  0  0  0  0  0  0  0  0  0  0  0
  1  2  1  0  0  0  0
  1  3  2  0  0  0  0
  1  4  1  0  0  0  0
  4  5  1  0  0  0  0
  4  6  1  0  0  0  0
  4  7  1  0  0  0  0
  7  8  1  0  0  0  0
  7  9  1  0  0  0  0
  7 10  1  0  0  0  0
 10 11  1  0  0  0  0
 10 12  1  0  0  0  0
 10 13  1  0  0  0  0
M  END
> <VConfSearch Rank>
271

> <Conf_Id>
4

> <Delta U+W>
0.281

> <U+W>
-58.051

> <U>
9.781

> <W>
-67.832

> <W(PB)>
-69.535

> <W(SA)>
1.703

> <Valence>
6.123

> <Coulomb>
3.449

> <VdW>
0.209

> <VdW6>
-3.762

> <VdW12>
3.972

> <Bond>
0.078

> <Angle>
2.428

> <Pdih>
3.616

> <Idih>
0.002

> <Tether>
0.000

$$$$
VeraChem MOL file


 13 12  0  0  0  0  0  0  0  0999 V2000     
   20.3220   18.5092   20.2767 C   0  0  0  0  0  0  0  0  0  0  0  0
   21.4538   18.7670   19.9185 O   0  5  0  0  0  0  0  0  0  0  0  0
   19.7119   17.5241   19.9112 O   0  0  0  0  0  0  0  0  0  0  0  0
   19.6136   19.4913   21.2065 C   0  0  0  0  0  0  0  0  0  0  0  0
   18.6170   19.6767   20.7885 H   0  0  0  0  0  0  0  0  0  0  0  0
   20.1503   20.4477   21.1822 H   0  0  0  0  0  0  0  0  0  0  0  0
   19.4751   18.9939   22.6683 C   0  0  0  0  0  0  0  0  0  0  0  0
   18.8282   19.6861   23.2243 H   0  0  0  0  0  0  0  0  0  0  0  0
   18.9733   18.0161   22.6780 H   0  0  0  0  0  0  0  0  0  0  0  0
   20.8359   18.8883   23.3875 C   0  0  0  0  0  0  0  0  0  0  0  0
   21.3450   19.8608   23.4087 H   0  0  0  0  0  0  0  0  0  0  0  0
   20.7006   18.5531   24.4240 H   0  0  0  0  0  0  0  0  0  0  0  0
   21.4943   18.1690   22.8826 H   0  0  0  0  0  0  0  0  0  0  0  0
  1  2  1  0  0  0  0
  1  3  2  0  0  0  0
  1  4  1  0  0  0  0
  4  5  1  0  0  0  0
  4  6  1  0  0  0  0
  4  7  1  0  0  0  0
  7  8  1  0  0  0  0
  7  9  1  0  0  0  0
  7 10  1  0  0  0  0
 10 11  1  0  0  0  0
 10 12  1  0  0  0  0
 10 13  1  0  0  0  0
M  END
> <VConfSearch Rank>
272

> <Conf_Id>
36

> <Delta U+W>
0.272

> <U+W>
-58.060

> <U>
9.781

> <W>
-67.841

> <W(PB)>
-69.537

> <W(SA)>
1.696

> <Valence>
6.123

> <Coulomb>
3.449

> <VdW>
0.209

> <VdW6>
-3.762

> <VdW12>
3.972

> <Bond>
0.078

> <Angle>
2.428

> <Pdih>
3.616

> <Idih>
0.002

> <Tether>
0.000

$$$$
VeraChem MOL file


 13 12  0  0  0  0  0  0  0  0999 V2000     
   20.2735   18.8622   19.7077 C   0  0  0  0  0  0  0  0  0  0  0  0
   20.0590   20.0156   19.3901 O   0  5  0  0  0  0  0  0  0  0  0  0
   20.5441   17.9940   18.9028 O   0  0  0  0  0  0  0  0  0  0  0  0
   20.2071   18.4538   21.1806 C   0  0  0  0  0  0  0  0  0  0  0  0
   21.1787   18.0196   21.4445 H   0  0  0  0  0  0  0  0  0  0  0  0
   19.4643   17.6516   21.2651 H   0  0  0  0  0  0  0  0  0  0  0  0
   19.8584   19.5951   22.1715 C   0  0  0  0  0  0  0  0  0  0  0  0
   20.6023   20.3992   22.0832 H   0  0  0  0  0  0  0  0  0  0  0  0
   18.8858   20.0309   21.9035 H   0  0  0  0  0  0  0  0  0  0  0  0
   19.8142   19.0909   23.6281 C   0  0  0  0  0  0  0  0  0  0  0  0
   20.7855   18.6782   23.9307 H   0  0  0  0  0  0  0  0  0  0  0  0
   19.5662   19.9117   24.3138 H   0  0  0  0  0  0  0  0  0  0  0  0
   19.0552   18.3068   23.7496 H   0  0  0  0  0  0  0  0  0  0  0  0
  1  2  1  0  0  0  0
  1  3  2  0  0  0  0
  1  4  1  0  0  0  0
  4  5  1  0  0  0  0
  4  6  1  0  0  0  0
  4  7  1  0  0  0  0
  7  8  1  0  0  0  0
  7  9  1  0  0  0  0
  7 10  1  0  0  0  0
 10 11  1  0  0  0  0
 10 12  1  0  0  0  0
 10 13  1  0  0  0  0
M  END
> <VConfSearch Rank>
273

> <Conf_Id>
0

> <Delta U+W>
0.000

> <U+W>
-58.332

> <U>
8.390

> <W>
-66.722

> <W(PB)>
-68.455

> <W(SA)>
1.733

> <Valence>
6.333

> <Coulomb>
1.215

> <VdW>
0.842

> <VdW6>
-3.344

> <VdW12>
4.186

> <Bond>
0.091

> <Angle>
2.713

> <Pdih>
3.529

> <Idih>
0.000

> <Tether>
0.000

$$$$
VeraChem MOL file


 13 12  0  0  0  0  0  0  0  0999 V2000     
   21.5164   18.6371   23.2344 C   0  0  0  0  0  0  0  0  0  0  0  0
   21.2700   17.7821   24.0612 O   0  5  0  0  0  0  0  0  0  0  0  0
   22.3298   19.5226   23.4067 O   0  0  0  0  0  0  0  0  0  0  0  0
   20.7497   18.6084   21.9165 C   0  0  0  0  0  0  0  0  0  0  0  0
   20.5340   17.5617   21.6697 H   0  0  0  0  0  0  0  0  0  0  0  0
   21.4080   18.9970   21.1300 H   0  0  0  0  0  0  0  0  0  0  0  0
   19.4362   19.4260   21.9638 C   0  0  0  0  0  0  0  0  0  0  0  0
   18.7893   19.0345   22.7612 H   0  0  0  0  0  0  0  0  0  0  0  0
   19.6635   20.4700   22.2212 H   0  0  0  0  0  0  0  0  0  0  0  0
   18.6855   19.3769   20.6179 C   0  0  0  0  0  0  0  0  0  0  0  0
   17.7579   19.9618   20.6710 H   0  0  0  0  0  0  0  0  0  0  0  0
   19.3017   19.7913   19.8091 H   0  0  0  0  0  0  0  0  0  0  0  0
   18.4208   18.3447   20.3533 H   0  0  0  0  0  0  0  0  0  0  0  0
  1  2  1  0  0  0  0
  1  3  2  0  0  0  0
  1  4  1  0  0  0  0
  4  5  1  0  0  0  0
  4  6  1  0  0  0  0
  4  7  1  0  0  0  0
  7  8  1  0  0  0  0
  7  9  1  0  0  0  0
  7 10  1  0  0  0  0
 10 11  1  0  0  0  0
 10 12  1  0  0  0  0
 10 13  1  0  0  0  0
M  END
> <VConfSearch Rank>
274

> <Conf_Id>
1

> <Delta U+W>
-1.339

> <U+W>
-59.672

> <U>
7.389

> <W>
-67.061

> <W(PB)>
-68.767

> <W(SA)>
1.707

> <Valence>
5.822

> <Coulomb>
1.255

> <VdW>
0.312

> <VdW6>
-3.061

> <VdW12>
3.372

> <Bond>
0.059

> <Angle>
2.241

> <Pdih>
3.522

> <Idih>
0.000

> <Tether>
0.000

$$$$
VeraChem MOL file


 13 12  0  0  0  0  0  0  0  0999 V2000     
   18.6180   19.9163   22.1950 C   0  0  0  0  0  0  0  0  0  0  0  0
   18.4745   20.8540   21.4359 O   0  5  0  0  0  0  0  0  0  0  0  0
   17.7121   19.1773   22.5251 O   0  0  0  0  0  0  0  0  0  0  0  0
   20.0029   19.6782   22.7918 C   0  0  0  0  0  0  0  0  0  0  0  0
   19.9002   19.0293   23.6702 H   0  0  0  0  0  0  0  0  0  0  0  0
   20.3736   20.6447   23.1537 H   0  0  0  0  0  0  0  0  0  0  0  0
   21.0269   19.0729   21.7976 C   0  0  0  0  0  0  0  0  0  0  0  0
   21.0914   19.7087   20.9035 H   0  0  0  0  0  0  0  0  0  0  0  0
   22.0233   19.0768   22.2603 H   0  0  0  0  0  0  0  0  0  0  0  0
   20.6681   17.6300   21.3861 C   0  0  0  0  0  0  0  0  0  0  0  0
   19.6947   17.5947   20.8791 H   0  0  0  0  0  0  0  0  0  0  0  0
   21.4222   17.2250   20.6988 H   0  0  0  0  0  0  0  0  0  0  0  0
   20.6202   16.9721   22.2637 H   0  0  0  0  0  0  0  0  0  0  0  0
  1  2  1  0  0  0  0
  1  3  2  0  0  0  0
  1  4  1  0  0  0  0
  4  5  1  0  0  0  0
  4  6  1  0  0  0  0
  4  7  1  0  0  0  0
  7  8  1  0  0  0  0
  7  9  1  0  0  0  0
  7 10  1  0  0  0  0
 10 11  1  0  0  0  0
 10 12  1  0  0  0  0
 10 13  1  0  0  0  0
M  END
> <VConfSearch Rank>
275

> <Conf_Id>
4

> <Delta U+W>
0.281

> <U+W>
-58.051

> <U>
9.781

> <W>
-67.832

> <W(PB)>
-69.535

> <W(SA)>
1.703

> <Valence>
6.123

> <Coulomb>
3.449

> <VdW>
0.209

> <VdW6>
-3.762

> <VdW12>
3.972

> <Bond>
0.078

> <Angle>
2.428

> <Pdih>
3.616

> <Idih>
0.002

> <Tether>
0.000

$$$$
VeraChem MOL file


 13 12  0  0  0  0  0  0  0  0999 V2000     
   18.5012   19.7379   22.0822 C   0  0  0  0  0  0  0  0  0  0  0  0
   17.6826   18.9255   22.4640 O   0  5  0  0  0  0  0  0  0  0  0  0
   18.4849   20.9084   22.4073 O   0  0  0  0  0  0  0  0  0  0  0  0
   19.5875   19.2740   21.1149 C   0  0  0  0  0  0  0  0  0  0  0  0
   19.6224   19.9971   20.2913 H   0  0  0  0  0  0  0  0  0  0  0  0
   19.2843   18.3135   20.6805 H   0  0  0  0  0  0  0  0  0  0  0  0
   20.9950   19.1509   21.7529 C   0  0  0  0  0  0  0  0  0  0  0  0
   21.7334   18.9618   20.9619 H   0  0  0  0  0  0  0  0  0  0  0  0
   21.2714   20.1061   22.2211 H   0  0  0  0  0  0  0  0  0  0  0  0
   21.0731   18.0174   22.7965 C   0  0  0  0  0  0  0  0  0  0  0  0
   20.8219   17.0492   22.3438 H   0  0  0  0  0  0  0  0  0  0  0  0
   22.0859   17.9447   23.2136 H   0  0  0  0  0  0  0  0  0  0  0  0
   20.3775   18.1969   23.6270 H   0  0  0  0  0  0  0  0  0  0  0  0
  1  2  1  0  0  0  0
  1  3  2  0  0  0  0
  1  4  1  0  0  0  0
  4  5  1  0  0  0  0
  4  6  1  0  0  0  0
  4  7  1  0  0  0  0
  7  8  1  0  0  0  0
  7  9  1  0  0  0  0
  7 10  1  0  0  0  0
 10 11  1  0  0  0  0
 10 12  1  0  0  0  0
 10 13  1  0  0  0  0
M  END
> <VConfSearch Rank>
276

> <Conf_Id>
36

> <Delta U+W>
0.272

> <U+W>
-58.060

> <U>
9.781

> <W>
-67.841

> <W(PB)>
-69.537

> <W(SA)>
1.696

> <Valence>
6.123

> <Coulomb>
3.449

> <VdW>
0.209

> <VdW6>
-3.762

> <VdW12>
3.972

> <Bond>
0.078

> <Angle>
2.428

> <Pdih>
3.616

> <Idih>
0.002

> <Tether>
0.000

$$$$
VeraChem MOL file


 13 12  0  0  0  0  0  0  0  0999 V2000     
   20.3720   20.5143   20.3598 C   0  0  0  0  0  0  0  0  0  0  0  0
   21.2209   21.1712   20.9302 O   0  5  0  0  0  0  0  0  0  0  0  0
   19.9519   20.7928   19.2549 O   0  0  0  0  0  0  0  0  0  0  0  0
   19.7860   19.2747   21.0386 C   0  0  0  0  0  0  0  0  0  0  0  0
   19.9597   18.4225   20.3708 H   0  0  0  0  0  0  0  0  0  0  0  0
   18.7005   19.4172   21.1002 H   0  0  0  0  0  0  0  0  0  0  0  0
   20.3523   18.9584   22.4475 C   0  0  0  0  0  0  0  0  0  0  0  0
   21.4405   18.8189   22.3840 H   0  0  0  0  0  0  0  0  0  0  0  0
   20.1798   19.8148   23.1143 H   0  0  0  0  0  0  0  0  0  0  0  0
   19.7047   17.6959   23.0513 C   0  0  0  0  0  0  0  0  0  0  0  0
   19.8897   16.8183   22.4180 H   0  0  0  0  0  0  0  0  0  0  0  0
   20.1175   17.4883   24.0472 H   0  0  0  0  0  0  0  0  0  0  0  0
   18.6188   17.8222   23.1541 H   0  0  0  0  0  0  0  0  0  0  0  0
  1  2  1  0  0  0  0
  1  3  2  0  0  0  0
  1  4  1  0  0  0  0
  4  5  1  0  0  0  0
  4  6  1  0  0  0  0
  4  7  1  0  0  0  0
  7  8  1  0  0  0  0
  7  9  1  0  0  0  0
  7 10  1  0  0  0  0
 10 11  1  0  0  0  0
 10 12  1  0  0  0  0
 10 13  1  0  0  0  0
M  END
> <VConfSearch Rank>
277

> <Conf_Id>
0

> <Delta U+W>
0.000

> <U+W>
-58.332

> <U>
8.390

> <W>
-66.722

> <W(PB)>
-68.455

> <W(SA)>
1.733

> <Valence>
6.333

> <Coulomb>
1.215

> <VdW>
0.842

> <VdW6>
-3.344

> <VdW12>
4.186

> <Bond>
0.091

> <Angle>
2.713

> <Pdih>
3.529

> <Idih>
0.000

> <Tether>
0.000

$$$$
VeraChem MOL file


 13 12  0  0  0  0  0  0  0  0999 V2000     
   18.4184   17.6287   21.8710 C   0  0  0  0  0  0  0  0  0  0  0  0
   17.5956   17.7212   20.9823 O   0  5  0  0  0  0  0  0  0  0  0  0
   18.1883   17.1156   22.9476 O   0  0  0  0  0  0  0  0  0  0  0  0
   19.8096   18.2045   21.6289 C   0  0  0  0  0  0  0  0  0  0  0  0
   20.0440   18.0941   20.5631 H   0  0  0  0  0  0  0  0  0  0  0  0
   20.5328   17.5946   22.1839 H   0  0  0  0  0  0  0  0  0  0  0  0
   19.9306   19.6890   22.0499 C   0  0  0  0  0  0  0  0  0  0  0  0
   19.1952   20.2884   21.4952 H   0  0  0  0  0  0  0  0  0  0  0  0
   19.6842   19.7888   23.1163 H   0  0  0  0  0  0  0  0  0  0  0  0
   21.3472   20.2408   21.7927 C   0  0  0  0  0  0  0  0  0  0  0  0
   21.4134   21.2935   22.0972 H   0  0  0  0  0  0  0  0  0  0  0  0
   22.0980   19.6758   22.3607 H   0  0  0  0  0  0  0  0  0  0  0  0
   21.6052   20.1792   20.7272 H   0  0  0  0  0  0  0  0  0  0  0  0
  1  2  1  0  0  0  0
  1  3  2  0  0  0  0
  1  4  1  0  0  0  0
  4  5  1  0  0  0  0
  4  6  1  0  0  0  0
  4  7  1  0  0  0  0
  7  8  1  0  0  0  0
  7  9  1  0  0  0  0
  7 10  1  0  0  0  0
 10 11  1  0  0  0  0
 10 12  1  0  0  0  0
 10 13  1  0  0  0  0
M  END
> <VConfSearch Rank>
278

> <Conf_Id>
1

> <Delta U+W>
-1.339

> <U+W>
-59.672

> <U>
7.389

> <W>
-67.061

> <W(PB)>
-68.767

> <W(SA)>
1.707

> <Valence>
5.822

> <Coulomb>
1.255

> <VdW>
0.312

> <VdW6>
-3.061

> <VdW12>
3.372

> <Bond>
0.059

> <Angle>
2.241

> <Pdih>
3.522

> <Idih>
0.000

> <Tether>
0.000

$$$$
VeraChem MOL file


 13 12  0  0  0  0  0  0  0  0999 V2000     
   21.2913   18.2462   20.8435 C   0  0  0  0  0  0  0  0  0  0  0  0
   22.3395   17.8566   21.3184 O   0  5  0  0  0  0  0  0  0  0  0  0
   20.6879   17.6505   19.9735 O   0  0  0  0  0  0  0  0  0  0  0  0
   20.7233   19.5725   21.3426 C   0  0  0  0  0  0  0  0  0  0  0  0
   19.9831   19.9329   20.6177 H   0  0  0  0  0  0  0  0  0  0  0  0
   21.5441   20.2996   21.3450 H   0  0  0  0  0  0  0  0  0  0  0  0
   20.0938   19.5009   22.7576 C   0  0  0  0  0  0  0  0  0  0  0  0
   20.8305   19.0999   23.4679 H   0  0  0  0  0  0  0  0  0  0  0  0
   19.8508   20.5176   23.0952 H   0  0  0  0  0  0  0  0  0  0  0  0
   18.8146   18.6394   22.7917 C   0  0  0  0  0  0  0  0  0  0  0  0
   19.0293   17.6022   22.5017 H   0  0  0  0  0  0  0  0  0  0  0  0
   18.3842   18.6258   23.8015 H   0  0  0  0  0  0  0  0  0  0  0  0
   18.0558   19.0360   22.1044 H   0  0  0  0  0  0  0  0  0  0  0  0
  1  2  1  0  0  0  0
  1  3  2  0  0  0  0
  1  4  1  0  0  0  0
  4  5  1  0  0  0  0
  4  6  1  0  0  0  0
  4  7  1  0  0  0  0
  7  8  1  0  0  0  0
  7  9  1  0  0  0  0
  7 10  1  0  0  0  0
 10 11  1  0  0  0  0
 10 12  1  0  0  0  0
 10 13  1  0  0  0  0
M  END
> <VConfSearch Rank>
279

> <Conf_Id>
4

> <Delta U+W>
0.281

> <U+W>
-58.051

> <U>
9.781

> <W>
-67.832

> <W(PB)>
-69.535

> <W(SA)>
1.703

> <Valence>
6.123

> <Coulomb>
3.449

> <VdW>
0.209

> <VdW6>
-3.762

> <VdW12>
3.972

> <Bond>
0.078

> <Angle>
2.428

> <Pdih>
3.616

> <Idih>
0.002

> <Tether>
0.000

$$$$
VeraChem MOL file


 13 12  0  0  0  0  0  0  0  0999 V2000     
   21.2084   18.6656   20.6081 C   0  0  0  0  0  0  0  0  0  0  0  0
   21.0475   19.5284   19.7681 O   0  5  0  0  0  0  0  0  0  0  0  0
   22.2919   18.1857   20.8761 O   0  0  0  0  0  0  0  0  0  0  0  0
   19.9816   18.1289   21.3415 C   0  0  0  0  0  0  0  0  0  0  0  0
   20.0371   17.0342   21.3140 H   0  0  0  0  0  0  0  0  0  0  0  0
   19.0836   18.4147   20.7801 H   0  0  0  0  0  0  0  0  0  0  0  0
   19.8645   18.6024   22.8130 C   0  0  0  0  0  0  0  0  0  0  0  0
   19.0480   18.0549   23.3033 H   0  0  0  0  0  0  0  0  0  0  0  0
   20.7858   18.3480   23.3556 H   0  0  0  0  0  0  0  0  0  0  0  0
   19.5946   20.1171   22.9261 C   0  0  0  0  0  0  0  0  0  0  0  0
   18.6654   20.3899   22.4089 H   0  0  0  0  0  0  0  0  0  0  0  0
   19.4978   20.4153   23.9782 H   0  0  0  0  0  0  0  0  0  0  0  0
   20.4149   20.6982   22.4842 H   0  0  0  0  0  0  0  0  0  0  0  0
  1  2  1  0  0  0  0
  1  3  2  0  0  0  0
  1  4  1  0  0  0  0
  4  5  1  0  0  0  0
  4  6  1  0  0  0  0
  4  7  1  0  0  0  0
  7  8  1  0  0  0  0
  7  9  1  0  0  0  0
  7 10  1  0  0  0  0
 10 11  1  0  0  0  0
 10 12  1  0  0  0  0
 10 13  1  0  0  0  0
M  END
> <VConfSearch Rank>
280

> <Conf_Id>
36

> <Delta U+W>
0.272

> <U+W>
-58.060

> <U>
9.781

> <W>
-67.841

> <W(PB)>
-69.537

> <W(SA)>
1.696

> <Valence>
6.123

> <Coulomb>
3.449

> <VdW>
0.209

> <VdW6>
-3.762

> <VdW12>
3.972

> <Bond>
0.078

> <Angle>
2.428

> <Pdih>
3.616

> <Idih>
0.002

> <Tether>
0.000

$$$$
VeraChem MOL file


 13 12  0  0  0  0  0  0  0  0999 V2000     
   21.8261   20.1385   21.8416 C   0  0  0  0  0  0  0  0  0  0  0  0
   22.0762   20.1225   23.0309 O   0  5  0  0  0  0  0  0  0  0  0  0
   22.5275   20.7019   21.0258 O   0  0  0  0  0  0  0  0  0  0  0  0
   20.5780   19.4259   21.3171 C   0  0  0  0  0  0  0  0  0  0  0  0
   20.9081   18.6934   20.5709 H   0  0  0  0  0  0  0  0  0  0  0  0
   19.9730   20.1717   20.7878 H   0  0  0  0  0  0  0  0  0  0  0  0
   19.7133   18.7208   22.3946 C   0  0  0  0  0  0  0  0  0  0  0  0
   20.3223   17.9760   22.9257 H   0  0  0  0  0  0  0  0  0  0  0  0
   19.3860   19.4561   23.1429 H   0  0  0  0  0  0  0  0  0  0  0  0
   18.4808   18.0322   21.7745 C   0  0  0  0  0  0  0  0  0  0  0  0
   18.7825   17.2696   21.0445 H   0  0  0  0  0  0  0  0  0  0  0  0
   17.8818   17.5393   22.5514 H   0  0  0  0  0  0  0  0  0  0  0  0
   17.8388   18.7616   21.2634 H   0  0  0  0  0  0  0  0  0  0  0  0
  1  2  1  0  0  0  0
  1  3  2  0  0  0  0
  1  4  1  0  0  0  0
  4  5  1  0  0  0  0
  4  6  1  0  0  0  0
  4  7  1  0  0  0  0
  7  8  1  0  0  0  0
  7  9  1  0  0  0  0
  7 10  1  0  0  0  0
 10 11  1  0  0  0  0
 10 12  1  0  0  0  0
 10 13  1  0  0  0  0
M  END
> <VConfSearch Rank>
281

> <Conf_Id>
0

> <Delta U+W>
0.000

> <U+W>
-58.332

> <U>
8.390

> <W>
-66.722

> <W(PB)>
-68.455

> <W(SA)>
1.733

> <Valence>
6.333

> <Coulomb>
1.215

> <VdW>
0.842

> <VdW6>
-3.344

> <VdW12>
4.186

> <Bond>
0.091

> <Angle>
2.713

> <Pdih>
3.529

> <Idih>
0.000

> <Tether>
0.000

$$$$
VeraChem MOL file


 13 12  0  0  0  0  0  0  0  0999 V2000     
   21.6948   18.6093   23.0011 C   0  0  0  0  0  0  0  0  0  0  0  0
   21.5752   17.7102   23.8090 O   0  5  0  0  0  0  0  0  0  0  0  0
   22.5074   19.5055   23.1100 O   0  0  0  0  0  0  0  0  0  0  0  0
   20.7620   18.6240   21.7948 C   0  0  0  0  0  0  0  0  0  0  0  0
   20.5351   17.5851   21.5260 H   0  0  0  0  0  0  0  0  0  0  0  0
   21.3038   19.0656   20.9496 H   0  0  0  0  0  0  0  0  0  0  0  0
   19.4513   19.4055   22.0541 C   0  0  0  0  0  0  0  0  0  0  0  0
   18.9223   18.9606   22.9085 H   0  0  0  0  0  0  0  0  0  0  0  0
   19.6912   20.4414   22.3318 H   0  0  0  0  0  0  0  0  0  0  0  0
   18.5311   19.4015   20.8170 C   0  0  0  0  0  0  0  0  0  0  0  0
   17.6079   19.9599   21.0200 H   0  0  0  0  0  0  0  0  0  0  0  0
   19.0277   19.8689   19.9565 H   0  0  0  0  0  0  0  0  0  0  0  0
   18.2529   18.3767   20.5377 H   0  0  0  0  0  0  0  0  0  0  0  0
  1  2  1  0  0  0  0
  1  3  2  0  0  0  0
  1  4  1  0  0  0  0
  4  5  1  0  0  0  0
  4  6  1  0  0  0  0
  4  7  1  0  0  0  0
  7  8  1  0  0  0  0
  7  9  1  0  0  0  0
  7 10  1  0  0  0  0
 10 11  1  0  0  0  0
 10 12  1  0  0  0  0
 10 13  1  0  0  0  0
M  END
> <VConfSearch Rank>
282

> <Conf_Id>
1

> <Delta U+W>
-1.339

> <U+W>
-59.672

> <U>
7.389

> <W>
-67.061

> <W(PB)>
-68.767

> <W(SA)>
1.707

> <Valence>
5.822

> <Coulomb>
1.255

> <VdW>
0.312

> <VdW6>
-3.061

> <VdW12>
3.372

> <Bond>
0.059

> <Angle>
2.241

> <Pdih>
3.522

> <Idih>
0.000

> <Tether>
0.000

$$$$
VeraChem MOL file


 13 12  0  0  0  0  0  0  0  0999 V2000     
   20.0127   17.5463   20.9118 C   0  0  0  0  0  0  0  0  0  0  0  0
   18.8940   17.2362   20.5534 O   0  5  0  0  0  0  0  0  0  0  0  0
   20.9829   17.5137   20.1814 O   0  0  0  0  0  0  0  0  0  0  0  0
   20.2131   17.9640   22.3665 C   0  0  0  0  0  0  0  0  0  0  0  0
   21.2812   17.8974   22.6072 H   0  0  0  0  0  0  0  0  0  0  0  0
   19.7007   17.2241   22.9928 H   0  0  0  0  0  0  0  0  0  0  0  0
   19.6781   19.3804   22.6994 C   0  0  0  0  0  0  0  0  0  0  0  0
   18.6184   19.4492   22.4163 H   0  0  0  0  0  0  0  0  0  0  0  0
   19.7252   19.5367   23.7858 H   0  0  0  0  0  0  0  0  0  0  0  0
   20.4790   20.4948   21.9948 C   0  0  0  0  0  0  0  0  0  0  0  0
   20.4171   20.3954   20.9030 H   0  0  0  0  0  0  0  0  0  0  0  0
   20.0877   21.4837   22.2669 H   0  0  0  0  0  0  0  0  0  0  0  0
   21.5382   20.4581   22.2815 H   0  0  0  0  0  0  0  0  0  0  0  0
  1  2  1  0  0  0  0
  1  3  2  0  0  0  0
  1  4  1  0  0  0  0
  4  5  1  0  0  0  0
  4  6  1  0  0  0  0
  4  7  1  0  0  0  0
  7  8  1  0  0  0  0
  7  9  1  0  0  0  0
  7 10  1  0  0  0  0
 10 11  1  0  0  0  0
 10 12  1  0  0  0  0
 10 13  1  0  0  0  0
M  END
> <VConfSearch Rank>
283

> <Conf_Id>
4

> <Delta U+W>
0.281

> <U+W>
-58.051

> <U>
9.781

> <W>
-67.832

> <W(PB)>
-69.535

> <W(SA)>
1.703

> <Valence>
6.123

> <Coulomb>
3.449

> <VdW>
0.209

> <VdW6>
-3.762

> <VdW12>
3.972

> <Bond>
0.078

> <Angle>
2.428

> <Pdih>
3.616

> <Idih>
0.002

> <Tether>
0.000

$$$$
VeraChem MOL file


 13 12  0  0  0  0  0  0  0  0999 V2000     
   21.3834   18.6348   20.7736 C   0  0  0  0  0  0  0  0  0  0  0  0
   22.4655   18.5526   21.3196 O   0  5  0  0  0  0  0  0  0  0  0  0
   21.0503   17.9345   19.8383 O   0  0  0  0  0  0  0  0  0  0  0  0
   20.4024   19.6973   21.2631 C   0  0  0  0  0  0  0  0  0  0  0  0
   20.0286   20.2289   20.3799 H   0  0  0  0  0  0  0  0  0  0  0  0
   20.9512   20.4312   21.8659 H   0  0  0  0  0  0  0  0  0  0  0  0
   19.2051   19.1321   22.0696 C   0  0  0  0  0  0  0  0  0  0  0  0
   18.4799   19.9375   22.2492 H   0  0  0  0  0  0  0  0  0  0  0  0
   18.6873   18.3683   21.4725 H   0  0  0  0  0  0  0  0  0  0  0  0
   19.6364   18.5311   23.4234 C   0  0  0  0  0  0  0  0  0  0  0  0
   20.1368   19.2846   24.0456 H   0  0  0  0  0  0  0  0  0  0  0  0
   18.7644   18.1586   23.9766 H   0  0  0  0  0  0  0  0  0  0  0  0
   20.3296   17.6917   23.2797 H   0  0  0  0  0  0  0  0  0  0  0  0
  1  2  1  0  0  0  0
  1  3  2  0  0  0  0
  1  4  1  0  0  0  0
  4  5  1  0  0  0  0
  4  6  1  0  0  0  0
  4  7  1  0  0  0  0
  7  8  1  0  0  0  0
  7  9  1  0  0  0  0
  7 10  1  0  0  0  0
 10 11  1  0  0  0  0
 10 12  1  0  0  0  0
 10 13  1  0  0  0  0
M  END
> <VConfSearch Rank>
284

> <Conf_Id>
36

> <Delta U+W>
0.272

> <U+W>
-58.060

> <U>
9.781

> <W>
-67.841

> <W(PB)>
-69.537

> <W(SA)>
1.696

> <Valence>
6.123

> <Coulomb>
3.449

> <VdW>
0.209

> <VdW6>
-3.762

> <VdW12>
3.972

> <Bond>
0.078

> <Angle>
2.428

> <Pdih>
3.616

> <Idih>
0.002

> <Tether>
0.000

$$$$
VeraChem MOL file


 13 12  0  0  0  0  0  0  0  0999 V2000     
   18.7957   20.4855   20.9056 C   0  0  0  0  0  0  0  0  0  0  0  0
   19.5817   21.4111   20.8536 O   0  5  0  0  0  0  0  0  0  0  0  0
   17.6544   20.5632   20.4978 O   0  0  0  0  0  0  0  0  0  0  0  0
   19.2336   19.1485   21.5068 C   0  0  0  0  0  0  0  0  0  0  0  0
   19.0802   18.3789   20.7410 H   0  0  0  0  0  0  0  0  0  0  0  0
   18.5485   18.9202   22.3320 H   0  0  0  0  0  0  0  0  0  0  0  0
   20.6984   19.0961   22.0142 C   0  0  0  0  0  0  0  0  0  0  0  0
   21.3831   19.3281   21.1864 H   0  0  0  0  0  0  0  0  0  0  0  0
   20.8509   19.8701   22.7793 H   0  0  0  0  0  0  0  0  0  0  0  0
   21.0486   17.7140   22.6015 C   0  0  0  0  0  0  0  0  0  0  0  0
   20.9340   16.9256   21.8461 H   0  0  0  0  0  0  0  0  0  0  0  0
   22.0879   17.6963   22.9549 H   0  0  0  0  0  0  0  0  0  0  0  0
   20.3974   17.4720   23.4517 H   0  0  0  0  0  0  0  0  0  0  0  0
  1  2  1  0  0  0  0
  1  3  2  0  0  0  0
  1  4  1  0  0  0  0
  4  5  1  0  0  0  0
  4  6  1  0  0  0  0
  4  7  1  0  0  0  0
  7  8  1  0  0  0  0
  7  9  1  0  0  0  0
  7 10  1  0  0  0  0
 10 11  1  0  0  0  0
 10 12  1  0  0  0  0
 10 13  1  0  0  0  0
M  END
> <VConfSearch Rank>
285

> <Conf_Id>
0

> <Delta U+W>
0.000

> <U+W>
-58.332

> <U>
8.390

> <W>
-66.722

> <W(PB)>
-68.455

> <W(SA)>
1.733

> <Valence>
6.333

> <Coulomb>
1.215

> <VdW>
0.842

> <VdW6>
-3.344

> <VdW12>
4.186

> <Bond>
0.091

> <Angle>
2.713

> <Pdih>
3.529

> <Idih>
0.000

> <Tether>
0.000

$$$$
VeraChem MOL file


 13 12  0  0  0  0  0  0  0  0999 V2000     
   19.4309   19.0132   19.7954 C   0  0  0  0  0  0  0  0  0  0  0  0
   19.5032   20.0741   19.2084 O   0  5  0  0  0  0  0  0  0  0  0  0
   18.6986   18.1061   19.4544 O   0  0  0  0  0  0  0  0  0  0  0  0
   20.2921   18.8166   21.0385 C   0  0  0  0  0  0  0  0  0  0  0  0
   21.2241   19.3780   20.9004 H   0  0  0  0  0  0  0  0  0  0  0  0
   20.5607   17.7551   21.1034 H   0  0  0  0  0  0  0  0  0  0  0  0
   19.5863   19.2679   22.3400 C   0  0  0  0  0  0  0  0  0  0  0  0
   19.3132   20.3294   22.2597 H   0  0  0  0  0  0  0  0  0  0  0  0
   18.6497   18.7061   22.4628 H   0  0  0  0  0  0  0  0  0  0  0  0
   20.4820   19.0564   23.5770 C   0  0  0  0  0  0  0  0  0  0  0  0
   19.9649   19.3819   24.4891 H   0  0  0  0  0  0  0  0  0  0  0  0
   20.7442   17.9968   23.6957 H   0  0  0  0  0  0  0  0  0  0  0  0
   21.4128   19.6326   23.4911 H   0  0  0  0  0  0  0  0  0  0  0  0
  1  2  1  0  0  0  0
  1  3  2  0  0  0  0
  1  4  1  0  0  0  0
  4  5  1  0  0  0  0
  4  6  1  0  0  0  0
  4  7  1  0  0  0  0
  7  8  1  0  0  0  0
  7  9  1  0  0  0  0
  7 10  1  0  0  0  0
 10 11  1  0  0  0  0
 10 12  1  0  0  0  0
 10 13  1  0  0  0  0
M  END
> <VConfSearch Rank>
286

> <Conf_Id>
1

> <Delta U+W>
-1.339

> <U+W>
-59.672

> <U>
7.389

> <W>
-67.061

> <W(PB)>
-68.767

> <W(SA)>
1.707

> <Valence>
5.822

> <Coulomb>
1.255

> <VdW>
0.312

> <VdW6>
-3.061

> <VdW12>
3.372

> <Bond>
0.059

> <Angle>
2.241

> <Pdih>
3.522

> <Idih>
0.000

> <Tether>
0.000

$$$$
VeraChem MOL file


 13 12  0  0  0  0  0  0  0  0999 V2000     
   20.8215   17.4069   21.4586 C   0  0  0  0  0  0  0  0  0  0  0  0
   20.1740   16.7893   20.6368 O   0  5  0  0  0  0  0  0  0  0  0  0
   22.0333   17.4891   21.4319 O   0  0  0  0  0  0  0  0  0  0  0  0
   20.0732   18.0843   22.6040 C   0  0  0  0  0  0  0  0  0  0  0  0
   20.7874   18.3103   23.4054 H   0  0  0  0  0  0  0  0  0  0  0  0
   19.3638   17.3528   23.0091 H   0  0  0  0  0  0  0  0  0  0  0  0
   19.3098   19.3689   22.1913 C   0  0  0  0  0  0  0  0  0  0  0  0
   18.6274   19.1403   21.3607 H   0  0  0  0  0  0  0  0  0  0  0  0
   18.6844   19.7013   23.0312 H   0  0  0  0  0  0  0  0  0  0  0  0
   20.2591   20.5151   21.7854 C   0  0  0  0  0  0  0  0  0  0  0  0
   20.8703   20.2329   20.9179 H   0  0  0  0  0  0  0  0  0  0  0  0
   19.6883   21.4141   21.5186 H   0  0  0  0  0  0  0  0  0  0  0  0
   20.9358   20.7749   22.6100 H   0  0  0  0  0  0  0  0  0  0  0  0
  1  2  1  0  0  0  0
  1  3  2  0  0  0  0
  1  4  1  0  0  0  0
  4  5  1  0  0  0  0
  4  6  1  0  0  0  0
  4  7  1  0  0  0  0
  7  8  1  0  0  0  0
  7  9  1  0  0  0  0
  7 10  1  0  0  0  0
 10 11  1  0  0  0  0
 10 12  1  0  0  0  0
 10 13  1  0  0  0  0
M  END
> <VConfSearch Rank>
287

> <Conf_Id>
4

> <Delta U+W>
0.281

> <U+W>
-58.051

> <U>
9.781

> <W>
-67.832

> <W(PB)>
-69.535

> <W(SA)>
1.703

> <Valence>
6.123

> <Coulomb>
3.449

> <VdW>
0.209

> <VdW6>
-3.762

> <VdW12>
3.972

> <Bond>
0.078

> <Angle>
2.428

> <Pdih>
3.616

> <Idih>
0.002

> <Tether>
0.000

$$$$
VeraChem MOL file


 13 12  0  0  0  0  0  0  0  0999 V2000     
   20.7592   20.6324   21.8296 C   0  0  0  0  0  0  0  0  0  0  0  0
   21.0446   21.0709   22.9260 O   0  5  0  0  0  0  0  0  0  0  0  0
   21.4117   20.8542   20.8290 O   0  0  0  0  0  0  0  0  0  0  0  0
   19.4949   19.7877   21.6924 C   0  0  0  0  0  0  0  0  0  0  0  0
   18.9334   20.1764   20.8345 H   0  0  0  0  0  0  0  0  0  0  0  0
   18.8686   19.9460   22.5789 H   0  0  0  0  0  0  0  0  0  0  0  0
   19.7619   18.2739   21.4907 C   0  0  0  0  0  0  0  0  0  0  0  0
   18.8153   17.7702   21.2519 H   0  0  0  0  0  0  0  0  0  0  0  0
   20.4236   18.1294   20.6252 H   0  0  0  0  0  0  0  0  0  0  0  0
   20.3837   17.6128   22.7382 C   0  0  0  0  0  0  0  0  0  0  0  0
   19.7274   17.7264   23.6109 H   0  0  0  0  0  0  0  0  0  0  0  0
   20.5414   16.5396   22.5692 H   0  0  0  0  0  0  0  0  0  0  0  0
   21.3554   18.0633   22.9806 H   0  0  0  0  0  0  0  0  0  0  0  0
  1  2  1  0  0  0  0
  1  3  2  0  0  0  0
  1  4  1  0  0  0  0
  4  5  1  0  0  0  0
  4  6  1  0  0  0  0
  4  7  1  0  0  0  0
  7  8  1  0  0  0  0
  7  9  1  0  0  0  0
  7 10  1  0  0  0  0
 10 11  1  0  0  0  0
 10 12  1  0  0  0  0
 10 13  1  0  0  0  0
M  END
> <VConfSearch Rank>
288

> <Conf_Id>
36

> <Delta U+W>
0.272

> <U+W>
-58.060

> <U>
9.781

> <W>
-67.841

> <W(PB)>
-69.537

> <W(SA)>
1.696

> <Valence>
6.123

> <Coulomb>
3.449

> <VdW>
0.209

> <VdW6>
-3.762

> <VdW12>
3.972

> <Bond>
0.078

> <Angle>
2.428

> <Pdih>
3.616

> <Idih>
0.002

> <Tether>
0.000

$$$$
VeraChem MOL file


 13 12  0  0  0  0  0  0  0  0999 V2000     
   18.5223   18.1033   20.5998 C   0  0  0  0  0  0  0  0  0  0  0  0
   19.0000   16.9954   20.4523 O   0  5  0  0  0  0  0  0  0  0  0  0
   17.4626   18.4372   20.1094 O   0  0  0  0  0  0  0  0  0  0  0  0
   19.2657   19.1473   21.4353 C   0  0  0  0  0  0  0  0  0  0  0  0
   18.5907   19.4652   22.2388 H   0  0  0  0  0  0  0  0  0  0  0  0
   19.4341   20.0207   20.7942 H   0  0  0  0  0  0  0  0  0  0  0  0
   20.6137   18.6762   22.0412 C   0  0  0  0  0  0  0  0  0  0  0  0
   20.4431   17.7991   22.6809 H   0  0  0  0  0  0  0  0  0  0  0  0
   21.2876   18.3552   21.2346 H   0  0  0  0  0  0  0  0  0  0  0  0
   21.2889   19.7917   22.8643 C   0  0  0  0  0  0  0  0  0  0  0  0
   20.6472   20.1088   23.6969 H   0  0  0  0  0  0  0  0  0  0  0  0
   22.2402   19.4401   23.2845 H   0  0  0  0  0  0  0  0  0  0  0  0
   21.4984   20.6695   22.2389 H   0  0  0  0  0  0  0  0  0  0  0  0
  1  2  1  0  0  0  0
  1  3  2  0  0  0  0
  1  4  1  0  0  0  0
  4  5  1  0  0  0  0
  4  6  1  0  0  0  0
  4  7  1  0  0  0  0
  7  8  1  0  0  0  0
  7  9  1  0  0  0  0
  7 10  1  0  0  0  0
 10 11  1  0  0  0  0
 10 12  1  0  0  0  0
 10 13  1  0  0  0  0
M  END
> <VConfSearch Rank>
289

> <Conf_Id>
0

> <Delta U+W>
0.000

> <U+W>
-58.332

> <U>
8.390

> <W>
-66.722

> <W(PB)>
-68.455

> <W(SA)>
1.733

> <Valence>
6.333

> <Coulomb>
1.215

> <VdW>
0.842

> <VdW6>
-3.344

> <VdW12>
4.186

> <Bond>
0.091

> <Angle>
2.713

> <Pdih>
3.529

> <Idih>
0.000

> <Tether>
0.000

$$$$
VeraChem MOL file


 13 12  0  0  0  0  0  0  0  0999 V2000     
   17.8806   18.9902   21.7284 C   0  0  0  0  0  0  0  0  0  0  0  0
   17.3424   18.0379   22.2563 O   0  5  0  0  0  0  0  0  0  0  0  0
   17.3750   19.6345   20.8314 O   0  0  0  0  0  0  0  0  0  0  0  0
   19.2741   19.3866   22.2045 C   0  0  0  0  0  0  0  0  0  0  0  0
   19.3474   19.1571   23.2745 H   0  0  0  0  0  0  0  0  0  0  0  0
   19.3743   20.4738   22.0995 H   0  0  0  0  0  0  0  0  0  0  0  0
   20.4047   18.6700   21.4273 C   0  0  0  0  0  0  0  0  0  0  0  0
   20.2884   17.5821   21.5314 H   0  0  0  0  0  0  0  0  0  0  0  0
   20.3154   18.8992   20.3562 H   0  0  0  0  0  0  0  0  0  0  0  0
   21.7992   19.0917   21.9320 C   0  0  0  0  0  0  0  0  0  0  0  0
   22.5870   18.5737   21.3695 H   0  0  0  0  0  0  0  0  0  0  0  0
   21.9507   20.1724   21.8104 H   0  0  0  0  0  0  0  0  0  0  0  0
   21.9235   18.8451   22.9947 H   0  0  0  0  0  0  0  0  0  0  0  0
  1  2  1  0  0  0  0
  1  3  2  0  0  0  0
  1  4  1  0  0  0  0
  4  5  1  0  0  0  0
  4  6  1  0  0  0  0
  4  7  1  0  0  0  0
  7  8  1  0  0  0  0
  7  9  1  0  0  0  0
  7 10  1  0  0  0  0
 10 11  1  0  0  0  0
 10 12  1  0  0  0  0
 10 13  1  0  0  0  0
M  END
> <VConfSearch Rank>
290

> <Conf_Id>
1

> <Delta U+W>
-1.339

> <U+W>
-59.672

> <U>
7.389

> <W>
-67.061

> <W(PB)>
-68.767

> <W(SA)>
1.707

> <Valence>
5.822

> <Coulomb>
1.255

> <VdW>
0.312

> <VdW6>
-3.061

> <VdW12>
3.372

> <Bond>
0.059

> <Angle>
2.241

> <Pdih>
3.522

> <Idih>
0.000

> <Tether>
0.000

$$$$
VeraChem MOL file


 13 12  0  0  0  0  0  0  0  0999 V2000     
   18.5326   19.4564   22.6568 C   0  0  0  0  0  0  0  0  0  0  0  0
   18.3341   19.1877   23.8249 O   0  5  0  0  0  0  0  0  0  0  0  0
   18.1798   20.4977   22.1400 O   0  0  0  0  0  0  0  0  0  0  0  0
   19.2303   18.4141   21.7865 C   0  0  0  0  0  0  0  0  0  0  0  0
   19.0486   18.6578   20.7325 H   0  0  0  0  0  0  0  0  0  0  0  0
   18.7436   17.4502   21.9770 H   0  0  0  0  0  0  0  0  0  0  0  0
   20.7526   18.2840   22.0495 C   0  0  0  0  0  0  0  0  0  0  0  0
   20.9255   18.0809   23.1157 H   0  0  0  0  0  0  0  0  0  0  0  0
   21.1407   17.4179   21.4962 H   0  0  0  0  0  0  0  0  0  0  0  0
   21.5348   19.5443   21.6257 C   0  0  0  0  0  0  0  0  0  0  0  0
   21.2025   20.4242   22.1924 H   0  0  0  0  0  0  0  0  0  0  0  0
   22.6094   19.4117   21.8066 H   0  0  0  0  0  0  0  0  0  0  0  0
   21.3936   19.7530   20.5571 H   0  0  0  0  0  0  0  0  0  0  0  0
  1  2  1  0  0  0  0
  1  3  2  0  0  0  0
  1  4  1  0  0  0  0
  4  5  1  0  0  0  0
  4  6  1  0  0  0  0
  4  7  1  0  0  0  0
  7  8  1  0  0  0  0
  7  9  1  0  0  0  0
  7 10  1  0  0  0  0
 10 11  1  0  0  0  0
 10 12  1  0  0  0  0
 10 13  1  0  0  0  0
M  END
> <VConfSearch Rank>
291

> <Conf_Id>
4

> <Delta U+W>
0.281

> <U+W>
-58.051

> <U>
9.781

> <W>
-67.832

> <W(PB)>
-69.535

> <W(SA)>
1.703

> <Valence>
6.123

> <Coulomb>
3.449

> <VdW>
0.209

> <VdW6>
-3.762

> <VdW12>
3.972

> <Bond>
0.078

> <Angle>
2.428

> <Pdih>
3.616

> <Idih>
0.002

> <Tether>
0.000

$$$$
VeraChem MOL file


 13 12  0  0  0  0  0  0  0  0999 V2000     
   21.7568   19.5821   21.6164 C   0  0  0  0  0  0  0  0  0  0  0  0
   21.7021   20.3201   20.6530 O   0  5  0  0  0  0  0  0  0  0  0  0
   22.4875   19.7758   22.5676 O   0  0  0  0  0  0  0  0  0  0  0  0
   20.8893   18.3259   21.6186 C   0  0  0  0  0  0  0  0  0  0  0  0
   21.5325   17.4848   21.9035 H   0  0  0  0  0  0  0  0  0  0  0  0
   20.5494   18.1318   20.5938 H   0  0  0  0  0  0  0  0  0  0  0  0
   19.6749   18.3949   22.5798 C   0  0  0  0  0  0  0  0  0  0  0  0
   19.1995   17.4059   22.6306 H   0  0  0  0  0  0  0  0  0  0  0  0
   20.0227   18.6307   23.5953 H   0  0  0  0  0  0  0  0  0  0  0  0
   18.6270   19.4353   22.1333 C   0  0  0  0  0  0  0  0  0  0  0  0
   18.2493   19.2055   21.1283 H   0  0  0  0  0  0  0  0  0  0  0  0
   17.7730   19.4448   22.8230 H   0  0  0  0  0  0  0  0  0  0  0  0
   19.0571   20.4455   22.1138 H   0  0  0  0  0  0  0  0  0  0  0  0
  1  2  1  0  0  0  0
  1  3  2  0  0  0  0
  1  4  1  0  0  0  0
  4  5  1  0  0  0  0
  4  6  1  0  0  0  0
  4  7  1  0  0  0  0
  7  8  1  0  0  0  0
  7  9  1  0  0  0  0
  7 10  1  0  0  0  0
 10 11  1  0  0  0  0
 10 12  1  0  0  0  0
 10 13  1  0  0  0  0
M  END
> <VConfSearch Rank>
292

> <Conf_Id>
36

> <Delta U+W>
0.272

> <U+W>
-58.060

> <U>
9.781

> <W>
-67.841

> <W(PB)>
-69.537

> <W(SA)>
1.696

> <Valence>
6.123

> <Coulomb>
3.449

> <VdW>
0.209

> <VdW6>
-3.762

> <VdW12>
3.972

> <Bond>
0.078

> <Angle>
2.428

> <Pdih>
3.616

> <Idih>
0.002

> <Tether>
0.000

$$$$
VeraChem MOL file


 13 12  0  0  0  0  0  0  0  0999 V2000     
   19.9187   20.2486   20.0947 C   0  0  0  0  0  0  0  0  0  0  0  0
   18.8156   19.9504   19.6805 O   0  5  0  0  0  0  0  0  0  0  0  0
   20.6343   21.0610   19.5446 O   0  0  0  0  0  0  0  0  0  0  0  0
   20.4588   19.5876   21.3644 C   0  0  0  0  0  0  0  0  0  0  0  0
   20.6943   20.3881   22.0758 H   0  0  0  0  0  0  0  0  0  0  0  0
   21.4067   19.1022   21.1033 H   0  0  0  0  0  0  0  0  0  0  0  0
   19.5107   18.5575   22.0321 C   0  0  0  0  0  0  0  0  0  0  0  0
   18.5604   19.0453   22.2902 H   0  0  0  0  0  0  0  0  0  0  0  0
   19.2736   17.7578   21.3165 H   0  0  0  0  0  0  0  0  0  0  0  0
   20.1378   17.9453   23.3008 C   0  0  0  0  0  0  0  0  0  0  0  0
   20.3558   18.7221   24.0455 H   0  0  0  0  0  0  0  0  0  0  0  0
   19.4530   17.2195   23.7588 H   0  0  0  0  0  0  0  0  0  0  0  0
   21.0748   17.4243   23.0639 H   0  0  0  0  0  0  0  0  0  0  0  0
  1  2  1  0  0  0  0
  1  3  2  0  0  0  0
  1  4  1  0  0  0  0
  4  5  1  0  0  0  0
  4  6  1  0  0  0  0
  4  7  1  0  0  0  0
  7  8  1  0  0  0  0
  7  9  1  0  0  0  0
  7 10  1  0  0  0  0
 10 11  1  0  0  0  0
 10 12  1  0  0  0  0
 10 13  1  0  0  0  0
M  END
> <VConfSearch Rank>
293

> <Conf_Id>
0

> <Delta U+W>
0.000

> <U+W>
-58.332

> <U>
8.390

> <W>
-66.722

> <W(PB)>
-68.455

> <W(SA)>
1.733

> <Valence>
6.333

> <Coulomb>
1.215

> <VdW>
0.842

> <VdW6>
-3.344

> <VdW12>
4.186

> <Bond>
0.091

> <Angle>
2.713

> <Pdih>
3.529

> <Idih>
0.000

> <Tether>
0.000

$$$$
VeraChem MOL file


 13 12  0  0  0  0  0  0  0  0999 V2000     
   21.4230   17.7182   21.0201 C   0  0  0  0  0  0  0  0  0  0  0  0
   22.4502   18.2266   20.6180 O   0  5  0  0  0  0  0  0  0  0  0  0
   21.0001   16.6525   20.6191 O   0  0  0  0  0  0  0  0  0  0  0  0
   20.6108   18.4672   22.0712 C   0  0  0  0  0  0  0  0  0  0  0  0
   21.3083   19.0250   22.7079 H   0  0  0  0  0  0  0  0  0  0  0  0
   20.1124   17.7269   22.7089 H   0  0  0  0  0  0  0  0  0  0  0  0
   19.5662   19.4291   21.4553 C   0  0  0  0  0  0  0  0  0  0  0  0
   20.0756   20.1595   20.8111 H   0  0  0  0  0  0  0  0  0  0  0  0
   18.8794   18.8611   20.8122 H   0  0  0  0  0  0  0  0  0  0  0  0
   18.7628   20.1702   22.5427 C   0  0  0  0  0  0  0  0  0  0  0  0
   18.0280   20.8468   22.0870 H   0  0  0  0  0  0  0  0  0  0  0  0
   18.2202   19.4613   23.1818 H   0  0  0  0  0  0  0  0  0  0  0  0
   19.4255   20.7696   23.1807 H   0  0  0  0  0  0  0  0  0  0  0  0
  1  2  1  0  0  0  0
  1  3  2  0  0  0  0
  1  4  1  0  0  0  0
  4  5  1  0  0  0  0
  4  6  1  0  0  0  0
  4  7  1  0  0  0  0
  7  8  1  0  0  0  0
  7  9  1  0  0  0  0
  7 10  1  0  0  0  0
 10 11  1  0  0  0  0
 10 12  1  0  0  0  0
 10 13  1  0  0  0  0
M  END
> <VConfSearch Rank>
294

> <Conf_Id>
1

> <Delta U+W>
-1.339

> <U+W>
-59.672

> <U>
7.389

> <W>
-67.061

> <W(PB)>
-68.767

> <W(SA)>
1.707

> <Valence>
5.822

> <Coulomb>
1.255

> <VdW>
0.312

> <VdW6>
-3.061

> <VdW12>
3.372

> <Bond>
0.059

> <Angle>
2.241

> <Pdih>
3.522

> <Idih>
0.000

> <Tether>
0.000

$$$$
VeraChem MOL file


 13 12  0  0  0  0  0  0  0  0999 V2000     
   19.5685   17.3503   22.5307 C   0  0  0  0  0  0  0  0  0  0  0  0
   18.6069   17.3356   23.2732 O   0  5  0  0  0  0  0  0  0  0  0  0
   19.7357   16.5461   21.6356 O   0  0  0  0  0  0  0  0  0  0  0  0
   20.6389   18.4145   22.7597 C   0  0  0  0  0  0  0  0  0  0  0  0
   21.5570   18.1059   22.2447 H   0  0  0  0  0  0  0  0  0  0  0  0
   20.8657   18.4247   23.8324 H   0  0  0  0  0  0  0  0  0  0  0  0
   20.2255   19.8383   22.3065 C   0  0  0  0  0  0  0  0  0  0  0  0
   19.2833   20.1210   22.7965 H   0  0  0  0  0  0  0  0  0  0  0  0
   20.9845   20.5576   22.6431 H   0  0  0  0  0  0  0  0  0  0  0  0
   20.0704   19.9488   20.7756 C   0  0  0  0  0  0  0  0  0  0  0  0
   19.2862   19.2733   20.4086 H   0  0  0  0  0  0  0  0  0  0  0  0
   19.7971   20.9722   20.4874 H   0  0  0  0  0  0  0  0  0  0  0  0
   21.0085   19.6916   20.2665 H   0  0  0  0  0  0  0  0  0  0  0  0
  1  2  1  0  0  0  0
  1  3  2  0  0  0  0
  1  4  1  0  0  0  0
  4  5  1  0  0  0  0
  4  6  1  0  0  0  0
  4  7  1  0  0  0  0
  7  8  1  0  0  0  0
  7  9  1  0  0  0  0
  7 10  1  0  0  0  0
 10 11  1  0  0  0  0
 10 12  1  0  0  0  0
 10 13  1  0  0  0  0
M  END
> <VConfSearch Rank>
295

> <Conf_Id>
4

> <Delta U+W>
0.281

> <U+W>
-58.051

> <U>
9.781

> <W>
-67.832

> <W(PB)>
-69.535

> <W(SA)>
1.703

> <Valence>
6.123

> <Coulomb>
3.449

> <VdW>
0.209

> <VdW6>
-3.762

> <VdW12>
3.972

> <Bond>
0.078

> <Angle>
2.428

> <Pdih>
3.616

> <Idih>
0.002

> <Tether>
0.000

$$$$
VeraChem MOL file


 13 12  0  0  0  0  0  0  0  0999 V2000     
   21.7689   19.4454   21.4926 C   0  0  0  0  0  0  0  0  0  0  0  0
   21.7909   19.6305   20.2921 O   0  5  0  0  0  0  0  0  0  0  0  0
   22.3941   20.1208   22.2857 O   0  0  0  0  0  0  0  0  0  0  0  0
   20.9412   18.2817   22.0325 C   0  0  0  0  0  0  0  0  0  0  0  0
   21.5758   17.7267   22.7336 H   0  0  0  0  0  0  0  0  0  0  0  0
   20.7121   17.5995   21.2046 H   0  0  0  0  0  0  0  0  0  0  0  0
   19.6346   18.7104   22.7482 C   0  0  0  0  0  0  0  0  0  0  0  0
   19.1845   17.8327   23.2319 H   0  0  0  0  0  0  0  0  0  0  0  0
   19.8714   19.4253   23.5487 H   0  0  0  0  0  0  0  0  0  0  0  0
   18.6082   19.3338   21.7798 C   0  0  0  0  0  0  0  0  0  0  0  0
   18.3405   18.6270   20.9834 H   0  0  0  0  0  0  0  0  0  0  0  0
   17.6891   19.6076   22.3139 H   0  0  0  0  0  0  0  0  0  0  0  0
   19.0095   20.2416   21.3101 H   0  0  0  0  0  0  0  0  0  0  0  0
  1  2  1  0  0  0  0
  1  3  2  0  0  0  0
  1  4  1  0  0  0  0
  4  5  1  0  0  0  0
  4  6  1  0  0  0  0
  4  7  1  0  0  0  0
  7  8  1  0  0  0  0
  7  9  1  0  0  0  0
  7 10  1  0  0  0  0
 10 11  1  0  0  0  0
 10 12  1  0  0  0  0
 10 13  1  0  0  0  0
M  END
> <VConfSearch Rank>
296

> <Conf_Id>
36

> <Delta U+W>
0.272

> <U+W>
-58.060

> <U>
9.781

> <W>
-67.841

> <W(PB)>
-69.537

> <W(SA)>
1.696

> <Valence>
6.123

> <Coulomb>
3.449

> <VdW>
0.209

> <VdW6>
-3.762

> <VdW12>
3.972

> <Bond>
0.078

> <Angle>
2.428

> <Pdih>
3.616

> <Idih>
0.002

> <Tether>
0.000

$$$$
VeraChem MOL file


 13 12  0  0  0  0  0  0  0  0999 V2000     
   18.6857   18.7430   20.1796 C   0  0  0  0  0  0  0  0  0  0  0  0
   18.2346   17.6450   20.4408 O   0  5  0  0  0  0  0  0  0  0  0  0
   18.3503   19.3803   19.2018 O   0  0  0  0  0  0  0  0  0  0  0  0
   19.7252   19.3781   21.1052 C   0  0  0  0  0  0  0  0  0  0  0  0
   19.3238   20.3438   21.4350 H   0  0  0  0  0  0  0  0  0  0  0  0
   20.6153   19.5907   20.5012 H   0  0  0  0  0  0  0  0  0  0  0  0
   20.1227   18.5282   22.3403 C   0  0  0  0  0  0  0  0  0  0  0  0
   19.2288   18.3138   22.9427 H   0  0  0  0  0  0  0  0  0  0  0  0
   20.5218   17.5598   22.0077 H   0  0  0  0  0  0  0  0  0  0  0  0
   21.1721   19.2467   23.2122 C   0  0  0  0  0  0  0  0  0  0  0  0
   20.7851   20.2049   23.5833 H   0  0  0  0  0  0  0  0  0  0  0  0
   21.4406   18.6306   24.0803 H   0  0  0  0  0  0  0  0  0  0  0  0
   22.0885   19.4449   22.6408 H   0  0  0  0  0  0  0  0  0  0  0  0
  1  2  1  0  0  0  0
  1  3  2  0  0  0  0
  1  4  1  0  0  0  0
  4  5  1  0  0  0  0
  4  6  1  0  0  0  0
  4  7  1  0  0  0  0
  7  8  1  0  0  0  0
  7  9  1  0  0  0  0
  7 10  1  0  0  0  0
 10 11  1  0  0  0  0
 10 12  1  0  0  0  0
 10 13  1  0  0  0  0
M  END
> <VConfSearch Rank>
297

> <Conf_Id>
0

> <Delta U+W>
0.000

> <U+W>
-58.332

> <U>
8.390

> <W>
-66.722

> <W(PB)>
-68.455

> <W(SA)>
1.733

> <Valence>
6.333

> <Coulomb>
1.215

> <VdW>
0.842

> <VdW6>
-3.344

> <VdW12>
4.186

> <Bond>
0.091

> <Angle>
2.713

> <Pdih>
3.529

> <Idih>
0.000

> <Tether>
0.000

$$$$
VeraChem MOL file


 13 12  0  0  0  0  0  0  0  0999 V2000     
   19.6747   17.5943   23.3395 C   0  0  0  0  0  0  0  0  0  0  0  0
   20.1562   17.8433   24.4265 O   0  5  0  0  0  0  0  0  0  0  0  0
   19.4291   16.4682   22.9564 O   0  0  0  0  0  0  0  0  0  0  0  0
   19.3802   18.7570   22.3977 C   0  0  0  0  0  0  0  0  0  0  0  0
   19.1036   19.6270   23.0054 H   0  0  0  0  0  0  0  0  0  0  0  0
   18.5039   18.4930   21.7932 H   0  0  0  0  0  0  0  0  0  0  0  0
   20.5753   19.1076   21.4785 C   0  0  0  0  0  0  0  0  0  0  0  0
   21.4496   19.3605   22.0946 H   0  0  0  0  0  0  0  0  0  0  0  0
   20.8497   18.2263   20.8820 H   0  0  0  0  0  0  0  0  0  0  0  0
   20.2460   20.2855   20.5397 C   0  0  0  0  0  0  0  0  0  0  0  0
   21.1045   20.5190   19.8966 H   0  0  0  0  0  0  0  0  0  0  0  0
   19.3927   20.0448   19.8920 H   0  0  0  0  0  0  0  0  0  0  0  0
   19.9972   21.1877   21.1139 H   0  0  0  0  0  0  0  0  0  0  0  0
  1  2  1  0  0  0  0
  1  3  2  0  0  0  0
  1  4  1  0  0  0  0
  4  5  1  0  0  0  0
  4  6  1  0  0  0  0
  4  7  1  0  0  0  0
  7  8  1  0  0  0  0
  7  9  1  0  0  0  0
  7 10  1  0  0  0  0
 10 11  1  0  0  0  0
 10 12  1  0  0  0  0
 10 13  1  0  0  0  0
M  END
> <VConfSearch Rank>
298

> <Conf_Id>
1

> <Delta U+W>
-1.339

> <U+W>
-59.672

> <U>
7.389

> <W>
-67.061

> <W(PB)>
-68.767

> <W(SA)>
1.707

> <Valence>
5.822

> <Coulomb>
1.255

> <VdW>
0.312

> <VdW6>
-3.061

> <VdW12>
3.372

> <Bond>
0.059

> <Angle>
2.241

> <Pdih>
3.522

> <Idih>
0.000

> <Tether>
0.000

$$$$
VeraChem MOL file


 13 12  0  0  0  0  0  0  0  0999 V2000     
   21.8942   19.0576   21.7263 C   0  0  0  0  0  0  0  0  0  0  0  0
   22.2479   19.3124   20.5922 O   0  5  0  0  0  0  0  0  0  0  0  0
   22.4349   19.5128   22.7145 O   0  0  0  0  0  0  0  0  0  0  0  0
   20.7321   18.0862   21.9173 C   0  0  0  0  0  0  0  0  0  0  0  0
   20.7468   17.7196   22.9510 H   0  0  0  0  0  0  0  0  0  0  0  0
   20.9203   17.2202   21.2715 H   0  0  0  0  0  0  0  0  0  0  0  0
   19.3421   18.6861   21.5832 C   0  0  0  0  0  0  0  0  0  0  0  0
   19.3511   19.0874   20.5601 H   0  0  0  0  0  0  0  0  0  0  0  0
   18.5906   17.8850   21.6014 H   0  0  0  0  0  0  0  0  0  0  0  0
   18.9232   19.7925   22.5733 C   0  0  0  0  0  0  0  0  0  0  0  0
   19.6305   20.6322   22.5491 H   0  0  0  0  0  0  0  0  0  0  0  0
   17.9282   20.1813   22.3206 H   0  0  0  0  0  0  0  0  0  0  0  0
   18.8863   19.4066   23.6004 H   0  0  0  0  0  0  0  0  0  0  0  0
  1  2  1  0  0  0  0
  1  3  2  0  0  0  0
  1  4  1  0  0  0  0
  4  5  1  0  0  0  0
  4  6  1  0  0  0  0
  4  7  1  0  0  0  0
  7  8  1  0  0  0  0
  7  9  1  0  0  0  0
  7 10  1  0  0  0  0
 10 11  1  0  0  0  0
 10 12  1  0  0  0  0
 10 13  1  0  0  0  0
M  END
> <VConfSearch Rank>
299

> <Conf_Id>
4

> <Delta U+W>
0.281

> <U+W>
-58.051

> <U>
9.781

> <W>
-67.832

> <W(PB)>
-69.535

> <W(SA)>
1.703

> <Valence>
6.123

> <Coulomb>
3.449

> <VdW>
0.209

> <VdW6>
-3.762

> <VdW12>
3.972

> <Bond>
0.078

> <Angle>
2.428

> <Pdih>
3.616

> <Idih>
0.002

> <Tether>
0.000

$$$$
VeraChem MOL file


 13 12  0  0  0  0  0  0  0  0999 V2000     
   21.0643   20.4889   21.9825 C   0  0  0  0  0  0  0  0  0  0  0  0
   21.5260   20.6708   20.8736 O   0  5  0  0  0  0  0  0  0  0  0  0
   20.6456   21.3844   22.6887 O   0  0  0  0  0  0  0  0  0  0  0  0
   21.0407   19.0656   22.5342 C   0  0  0  0  0  0  0  0  0  0  0  0
   21.4514   19.1018   23.5502 H   0  0  0  0  0  0  0  0  0  0  0  0
   21.7229   18.4465   21.9387 H   0  0  0  0  0  0  0  0  0  0  0  0
   19.6306   18.4225   22.5708 C   0  0  0  0  0  0  0  0  0  0  0  0
   19.6834   17.4699   23.1155 H   0  0  0  0  0  0  0  0  0  0  0  0
   18.9452   19.0709   23.1345 H   0  0  0  0  0  0  0  0  0  0  0  0
   19.0622   18.1652   21.1598 C   0  0  0  0  0  0  0  0  0  0  0  0
   19.7215   17.5005   20.5864 H   0  0  0  0  0  0  0  0  0  0  0  0
   18.0734   17.6923   21.2214 H   0  0  0  0  0  0  0  0  0  0  0  0
   18.9538   19.1041   20.6008 H   0  0  0  0  0  0  0  0  0  0  0  0
  1  2  1  0  0  0  0
  1  3  2  0  0  0  0
  1  4  1  0  0  0  0
  4  5  1  0  0  0  0
  4  6  1  0  0  0  0
  4  7  1  0  0  0  0
  7  8  1  0  0  0  0
  7  9  1  0  0  0  0
  7 10  1  0  0  0  0
 10 11  1  0  0  0  0
 10 12  1  0  0  0  0
 10 13  1  0  0  0  0
M  END
> <VConfSearch Rank>
300

> <Conf_Id>
36

> <Delta U+W>
0.272

> <U+W>
-58.060

> <U>
9.781

> <W>
-67.841

> <W(PB)>
-69.537

> <W(SA)>
1.696

> <Valence>
6.123

> <Coulomb>
3.449

> <VdW>
0.209

> <VdW6>
-3.762

> <VdW12>
3.972

> <Bond>
0.078

> <Angle>
2.428

> <Pdih>
3.616

> <Idih>
0.002

> <Tether>
0.000

$$$$
VeraChem MOL file


 13 12  0  0  0  0  0  0  0  0999 V2000     
   20.5916   17.0424   21.1973 C   0  0  0  0  0  0  0  0  0  0  0  0
   19.8716   16.9085   20.2273 O   0  5  0  0  0  0  0  0  0  0  0  0
   21.3676   16.1851   21.5684 O   0  0  0  0  0  0  0  0  0  0  0  0
   20.5414   18.3384   22.0088 C   0  0  0  0  0  0  0  0  0  0  0  0
   21.5538   18.7595   22.0168 H   0  0  0  0  0  0  0  0  0  0  0  0
   20.2988   18.0681   23.0434 H   0  0  0  0  0  0  0  0  0  0  0  0
   19.5364   19.4038   21.4978 C   0  0  0  0  0  0  0  0  0  0  0  0
   19.7795   19.6712   20.4600 H   0  0  0  0  0  0  0  0  0  0  0  0
   18.5230   18.9788   21.4877 H   0  0  0  0  0  0  0  0  0  0  0  0
   19.5554   20.6717   22.3753 C   0  0  0  0  0  0  0  0  0  0  0  0
   20.5516   21.1335   22.3768 H   0  0  0  0  0  0  0  0  0  0  0  0
   18.8388   21.4131   21.9986 H   0  0  0  0  0  0  0  0  0  0  0  0
   19.2850   20.4356   23.4129 H   0  0  0  0  0  0  0  0  0  0  0  0
  1  2  1  0  0  0  0
  1  3  2  0  0  0  0
  1  4  1  0  0  0  0
  4  5  1  0  0  0  0
  4  6  1  0  0  0  0
  4  7  1  0  0  0  0
  7  8  1  0  0  0  0
  7  9  1  0  0  0  0
  7 10  1  0  0  0  0
 10 11  1  0  0  0  0
 10 12  1  0  0  0  0
 10 13  1  0  0  0  0
M  END
> <VConfSearch Rank>
301

> <Conf_Id>
0

> <Delta U+W>
0.000

> <U+W>
-58.332

> <U>
8.390

> <W>
-66.722

> <W(PB)>
-68.455

> <W(SA)>
1.733

> <Valence>
6.333

> <Coulomb>
1.215

> <VdW>
0.842

> <VdW6>
-3.344

> <VdW12>
4.186

> <Bond>
0.091

> <Angle>
2.713

> <Pdih>
3.529

> <Idih>
0.000

> <Tether>
0.000

$$$$
VeraChem MOL file


 13 12  0  0  0  0  0  0  0  0999 V2000     
   18.5403   20.3274   22.6696 C   0  0  0  0  0  0  0  0  0  0  0  0
   17.4913   20.4166   22.0637 O   0  5  0  0  0  0  0  0  0  0  0  0
   18.9595   21.1893   23.4157 O   0  0  0  0  0  0  0  0  0  0  0  0
   19.3853   19.0741   22.4683 C   0  0  0  0  0  0  0  0  0  0  0  0
   18.7076   18.2304   22.2894 H   0  0  0  0  0  0  0  0  0  0  0  0
   19.9184   18.8677   23.4044 H   0  0  0  0  0  0  0  0  0  0  0  0
   20.3921   19.2055   21.3000 C   0  0  0  0  0  0  0  0  0  0  0  0
   19.8480   19.4219   20.3699 H   0  0  0  0  0  0  0  0  0  0  0  0
   21.0591   20.0591   21.4852 H   0  0  0  0  0  0  0  0  0  0  0  0
   21.2301   17.9234   21.1226 C   0  0  0  0  0  0  0  0  0  0  0  0
   21.9373   18.0358   20.2905 H   0  0  0  0  0  0  0  0  0  0  0  0
   21.8069   17.7026   22.0303 H   0  0  0  0  0  0  0  0  0  0  0  0
   20.5866   17.0604   20.9065 H   0  0  0  0  0  0  0  0  0  0  0  0
  1  2  1  0  0  0  0
  1  3  2  0  0  0  0
  1  4  1  0  0  0  0
  4  5  1  0  0  0  0
  4  6  1  0  0  0  0
  4  7  1  0  0  0  0
  7  8  1  0  0  0  0
  7  9  1  0  0  0  0
  7 10  1  0  0  0  0
 10 11  1  0  0  0  0
 10 12  1  0  0  0  0
 10 13  1  0  0  0  0
M  END
> <VConfSearch Rank>
302

> <Conf_Id>
1

> <Delta U+W>
-1.339

> <U+W>
-59.672

> <U>
7.389

> <W>
-67.061

> <W(PB)>
-68.767

> <W(SA)>
1.707

> <Valence>
5.822

> <Coulomb>
1.255

> <VdW>
0.312

> <VdW6>
-3.061

> <VdW12>
3.372

> <Bond>
0.059

> <Angle>
2.241

> <Pdih>
3.522

> <Idih>
0.000

> <Tether>
0.000

$$$$
VeraChem MOL file


 13 12  0  0  0  0  0  0  0  0999 V2000     
   19.0398   17.9400   21.0088 C   0  0  0  0  0  0  0  0  0  0  0  0
   18.3805   18.5164   20.1667 O   0  5  0  0  0  0  0  0  0  0  0  0
   19.5586   16.8566   20.8271 O   0  0  0  0  0  0  0  0  0  0  0  0
   19.1929   18.5975   22.3781 C   0  0  0  0  0  0  0  0  0  0  0  0
   19.5210   17.8378   23.0980 H   0  0  0  0  0  0  0  0  0  0  0  0
   18.1963   18.9258   22.6965 H   0  0  0  0  0  0  0  0  0  0  0  0
   20.1641   19.8057   22.3970 C   0  0  0  0  0  0  0  0  0  0  0  0
   19.8501   20.5418   21.6436 H   0  0  0  0  0  0  0  0  0  0  0  0
   20.0981   20.3053   23.3731 H   0  0  0  0  0  0  0  0  0  0  0  0
   21.6278   19.3906   22.1414 C   0  0  0  0  0  0  0  0  0  0  0  0
   21.7394   18.9263   21.1525 H   0  0  0  0  0  0  0  0  0  0  0  0
   22.2904   20.2650   22.1809 H   0  0  0  0  0  0  0  0  0  0  0  0
   21.9693   18.6711   22.8970 H   0  0  0  0  0  0  0  0  0  0  0  0
  1  2  1  0  0  0  0
  1  3  2  0  0  0  0
  1  4  1  0  0  0  0
  4  5  1  0  0  0  0
  4  6  1  0  0  0  0
  4  7  1  0  0  0  0
  7  8  1  0  0  0  0
  7  9  1  0  0  0  0
  7 10  1  0  0  0  0
 10 11  1  0  0  0  0
 10 12  1  0  0  0  0
 10 13  1  0  0  0  0
M  END
> <VConfSearch Rank>
303

> <Conf_Id>
4

> <Delta U+W>
0.281

> <U+W>
-58.051

> <U>
9.781

> <W>
-67.832

> <W(PB)>
-69.535

> <W(SA)>
1.703

> <Valence>
6.123

> <Coulomb>
3.449

> <VdW>
0.209

> <VdW6>
-3.762

> <VdW12>
3.972

> <Bond>
0.078

> <Angle>
2.428

> <Pdih>
3.616

> <Idih>
0.002

> <Tether>
0.000

$$$$
VeraChem MOL file


 13 12  0  0  0  0  0  0  0  0999 V2000     
   19.0562   17.9979   23.0665 C   0  0  0  0  0  0  0  0  0  0  0  0
   18.2657   17.3673   22.3932 O   0  5  0  0  0  0  0  0  0  0  0  0
   19.5722   17.5626   24.0766 O   0  0  0  0  0  0  0  0  0  0  0  0
   19.3931   19.4256   22.6433 C   0  0  0  0  0  0  0  0  0  0  0  0
   19.3059   20.0597   23.5336 H   0  0  0  0  0  0  0  0  0  0  0  0
   18.6317   19.7705   21.9329 H   0  0  0  0  0  0  0  0  0  0  0  0
   20.8078   19.5887   22.0307 C   0  0  0  0  0  0  0  0  0  0  0  0
   21.0210   20.6581   21.8971 H   0  0  0  0  0  0  0  0  0  0  0  0
   21.5595   19.2023   22.7332 H   0  0  0  0  0  0  0  0  0  0  0  0
   20.9486   18.8732   20.6713 C   0  0  0  0  0  0  0  0  0  0  0  0
   20.2203   19.2604   19.9467 H   0  0  0  0  0  0  0  0  0  0  0  0
   21.9537   19.0247   20.2566 H   0  0  0  0  0  0  0  0  0  0  0  0
   20.7852   17.7923   20.7754 H   0  0  0  0  0  0  0  0  0  0  0  0
  1  2  1  0  0  0  0
  1  3  2  0  0  0  0
  1  4  1  0  0  0  0
  4  5  1  0  0  0  0
  4  6  1  0  0  0  0
  4  7  1  0  0  0  0
  7  8  1  0  0  0  0
  7  9  1  0  0  0  0
  7 10  1  0  0  0  0
 10 11  1  0  0  0  0
 10 12  1  0  0  0  0
 10 13  1  0  0  0  0
M  END
> <VConfSearch Rank>
304

> <Conf_Id>
36

> <Delta U+W>
0.272

> <U+W>
-58.060

> <U>
9.781

> <W>
-67.841

> <W(PB)>
-69.537

> <W(SA)>
1.696

> <Valence>
6.123

> <Coulomb>
3.449

> <VdW>
0.209

> <VdW6>
-3.762

> <VdW12>
3.972

> <Bond>
0.078

> <Angle>
2.428

> <Pdih>
3.616

> <Idih>
0.002

> <Tether>
0.000

$$$$
VeraChem MOL file


 13 12  0  0  0  0  0  0  0  0999 V2000     
   19.5657   17.0033   21.2299 C   0  0  0  0  0  0  0  0  0  0  0  0
   18.3873   16.9569   21.5239 O   0  5  0  0  0  0  0  0  0  0  0  0
   20.1624   16.0663   20.7393 O   0  0  0  0  0  0  0  0  0  0  0  0
   20.3614   18.2864   21.4773 C   0  0  0  0  0  0  0  0  0  0  0  0
   20.7820   18.6019   20.5150 H   0  0  0  0  0  0  0  0  0  0  0  0
   21.2063   18.0281   22.1267 H   0  0  0  0  0  0  0  0  0  0  0  0
   19.5584   19.4557   22.1050 C   0  0  0  0  0  0  0  0  0  0  0  0
   18.7106   19.7111   21.4541 H   0  0  0  0  0  0  0  0  0  0  0  0
   19.1354   19.1365   23.0678 H   0  0  0  0  0  0  0  0  0  0  0  0
   20.4402   20.7029   22.3170 C   0  0  0  0  0  0  0  0  0  0  0  0
   20.8506   21.0606   21.3635 H   0  0  0  0  0  0  0  0  0  0  0  0
   19.8553   21.5187   22.7615 H   0  0  0  0  0  0  0  0  0  0  0  0
   21.2788   20.4814   22.9901 H   0  0  0  0  0  0  0  0  0  0  0  0
  1  2  1  0  0  0  0
  1  3  2  0  0  0  0
  1  4  1  0  0  0  0
  4  5  1  0  0  0  0
  4  6  1  0  0  0  0
  4  7  1  0  0  0  0
  7  8  1  0  0  0  0
  7  9  1  0  0  0  0
  7 10  1  0  0  0  0
 10 11  1  0  0  0  0
 10 12  1  0  0  0  0
 10 13  1  0  0  0  0
M  END
> <VConfSearch Rank>
305

> <Conf_Id>
0

> <Delta U+W>
0.000

> <U+W>
-58.332

> <U>
8.390

> <W>
-66.722

> <W(PB)>
-68.455

> <W(SA)>
1.733

> <Valence>
6.333

> <Coulomb>
1.215

> <VdW>
0.842

> <VdW6>
-3.344

> <VdW12>
4.186

> <Bond>
0.091

> <Angle>
2.713

> <Pdih>
3.529

> <Idih>
0.000

> <Tether>
0.000

$$$$
VeraChem MOL file


 13 12  0  0  0  0  0  0  0  0999 V2000     
   21.1103   17.5810   20.7945 C   0  0  0  0  0  0  0  0  0  0  0  0
   20.7093   16.4378   20.8819 O   0  5  0  0  0  0  0  0  0  0  0  0
   22.2637   17.8704   20.5470 O   0  0  0  0  0  0  0  0  0  0  0  0
   20.1162   18.7138   21.0265 C   0  0  0  0  0  0  0  0  0  0  0  0
   19.1317   18.3815   20.6752 H   0  0  0  0  0  0  0  0  0  0  0  0
   20.4136   19.5629   20.3991 H   0  0  0  0  0  0  0  0  0  0  0  0
   20.0331   19.1505   22.5092 C   0  0  0  0  0  0  0  0  0  0  0  0
   19.7442   18.2902   23.1290 H   0  0  0  0  0  0  0  0  0  0  0  0
   21.0263   19.4719   22.8527 H   0  0  0  0  0  0  0  0  0  0  0  0
   19.0207   20.2959   22.7102 C   0  0  0  0  0  0  0  0  0  0  0  0
   18.9759   20.5914   23.7666 H   0  0  0  0  0  0  0  0  0  0  0  0
   19.3049   21.1789   22.1229 H   0  0  0  0  0  0  0  0  0  0  0  0
   18.0130   19.9881   22.4013 H   0  0  0  0  0  0  0  0  0  0  0  0
  1  2  1  0  0  0  0
  1  3  2  0  0  0  0
  1  4  1  0  0  0  0
  4  5  1  0  0  0  0
  4  6  1  0  0  0  0
  4  7  1  0  0  0  0
  7  8  1  0  0  0  0
  7  9  1  0  0  0  0
  7 10  1  0  0  0  0
 10 11  1  0  0  0  0
 10 12  1  0  0  0  0
 10 13  1  0  0  0  0
M  END
> <VConfSearch Rank>
306

> <Conf_Id>
1

> <Delta U+W>
-1.339

> <U+W>
-59.672

> <U>
7.389

> <W>
-67.061

> <W(PB)>
-68.767

> <W(SA)>
1.707

> <Valence>
5.822

> <Coulomb>
1.255

> <VdW>
0.312

> <VdW6>
-3.061

> <VdW12>
3.372

> <Bond>
0.059

> <Angle>
2.241

> <Pdih>
3.522

> <Idih>
0.000

> <Tether>
0.000

$$$$
VeraChem MOL file


 13 12  0  0  0  0  0  0  0  0999 V2000     
   19.3339   20.5714   22.1096 C   0  0  0  0  0  0  0  0  0  0  0  0
   18.2235   20.5847   22.6025 O   0  5  0  0  0  0  0  0  0  0  0  0
   20.1717   21.4248   22.3235 O   0  0  0  0  0  0  0  0  0  0  0  0
   19.6795   19.4411   21.1433 C   0  0  0  0  0  0  0  0  0  0  0  0
   20.5578   19.7369   20.5563 H   0  0  0  0  0  0  0  0  0  0  0  0
   18.8448   19.3468   20.4385 H   0  0  0  0  0  0  0  0  0  0  0  0
   19.9318   18.0742   21.8297 C   0  0  0  0  0  0  0  0  0  0  0  0
   19.0630   17.8072   22.4477 H   0  0  0  0  0  0  0  0  0  0  0  0
   20.0224   17.2960   21.0596 H   0  0  0  0  0  0  0  0  0  0  0  0
   21.2075   18.0756   22.6972 C   0  0  0  0  0  0  0  0  0  0  0  0
   21.1332   18.8134   23.5071 H   0  0  0  0  0  0  0  0  0  0  0  0
   21.3671   17.0893   23.1519 H   0  0  0  0  0  0  0  0  0  0  0  0
   22.0920   18.3187   22.0939 H   0  0  0  0  0  0  0  0  0  0  0  0
  1  2  1  0  0  0  0
  1  3  2  0  0  0  0
  1  4  1  0  0  0  0
  4  5  1  0  0  0  0
  4  6  1  0  0  0  0
  4  7  1  0  0  0  0
  7  8  1  0  0  0  0
  7  9  1  0  0  0  0
  7 10  1  0  0  0  0
 10 11  1  0  0  0  0
 10 12  1  0  0  0  0
 10 13  1  0  0  0  0
M  END
> <VConfSearch Rank>
307

> <Conf_Id>
4

> <Delta U+W>
0.281

> <U+W>
-58.051

> <U>
9.781

> <W>
-67.832

> <W(PB)>
-69.535

> <W(SA)>
1.703

> <Valence>
6.123

> <Coulomb>
3.449

> <VdW>
0.209

> <VdW6>
-3.762

> <VdW12>
3.972

> <Bond>
0.078

> <Angle>
2.428

> <Pdih>
3.616

> <Idih>
0.002

> <Tether>
0.000

$$$$
VeraChem MOL file


 13 12  0  0  0  0  0  0  0  0999 V2000     
   18.5413   18.2661   21.5115 C   0  0  0  0  0  0  0  0  0  0  0  0
   17.6425   18.8455   22.0880 O   0  5  0  0  0  0  0  0  0  0  0  0
   18.4606   17.8804   20.3623 O   0  0  0  0  0  0  0  0  0  0  0  0
   19.8275   17.9744   22.2806 C   0  0  0  0  0  0  0  0  0  0  0  0
   20.0759   16.9194   22.1142 H   0  0  0  0  0  0  0  0  0  0  0  0
   19.6288   18.0876   23.3534 H   0  0  0  0  0  0  0  0  0  0  0  0
   21.0304   18.8592   21.8641 C   0  0  0  0  0  0  0  0  0  0  0  0
   21.9397   18.4837   22.3531 H   0  0  0  0  0  0  0  0  0  0  0  0
   21.1947   18.7703   20.7811 H   0  0  0  0  0  0  0  0  0  0  0  0
   20.8312   20.3418   22.2410 C   0  0  0  0  0  0  0  0  0  0  0  0
   20.6873   20.4556   23.3235 H   0  0  0  0  0  0  0  0  0  0  0  0
   21.7075   20.9359   21.9506 H   0  0  0  0  0  0  0  0  0  0  0  0
   19.9535   20.7635   21.7335 H   0  0  0  0  0  0  0  0  0  0  0  0
  1  2  1  0  0  0  0
  1  3  2  0  0  0  0
  1  4  1  0  0  0  0
  4  5  1  0  0  0  0
  4  6  1  0  0  0  0
  4  7  1  0  0  0  0
  7  8  1  0  0  0  0
  7  9  1  0  0  0  0
  7 10  1  0  0  0  0
 10 11  1  0  0  0  0
 10 12  1  0  0  0  0
 10 13  1  0  0  0  0
M  END
> <VConfSearch Rank>
308

> <Conf_Id>
36

> <Delta U+W>
0.272

> <U+W>
-58.060

> <U>
9.781

> <W>
-67.841

> <W(PB)>
-69.537

> <W(SA)>
1.696

> <Valence>
6.123

> <Coulomb>
3.449

> <VdW>
0.209

> <VdW6>
-3.762

> <VdW12>
3.972

> <Bond>
0.078

> <Angle>
2.428

> <Pdih>
3.616

> <Idih>
0.002

> <Tether>
0.000

$$$$
VeraChem MOL file


 13 12  0  0  0  0  0  0  0  0999 V2000     
   18.6415   17.3772   21.8853 C   0  0  0  0  0  0  0  0  0  0  0  0
   17.9744   17.7012   22.8483 O   0  5  0  0  0  0  0  0  0  0  0  0
   18.4347   16.3643   21.2480 O   0  0  0  0  0  0  0  0  0  0  0  0
   19.8019   18.2646   21.4305 C   0  0  0  0  0  0  0  0  0  0  0  0
   19.6150   18.5383   20.3853 H   0  0  0  0  0  0  0  0  0  0  0  0
   20.7094   17.6493   21.4431 H   0  0  0  0  0  0  0  0  0  0  0  0
   20.0281   19.5466   22.2739 C   0  0  0  0  0  0  0  0  0  0  0  0
   19.1165   20.1603   22.2624 H   0  0  0  0  0  0  0  0  0  0  0  0
   20.2122   19.2702   23.3215 H   0  0  0  0  0  0  0  0  0  0  0  0
   21.2149   20.3755   21.7427 C   0  0  0  0  0  0  0  0  0  0  0  0
   21.0410   20.6909   20.7055 H   0  0  0  0  0  0  0  0  0  0  0  0
   21.3594   21.2777   22.3515 H   0  0  0  0  0  0  0  0  0  0  0  0
   22.1455   19.7936   21.7730 H   0  0  0  0  0  0  0  0  0  0  0  0
  1  2  1  0  0  0  0
  1  3  2  0  0  0  0
  1  4  1  0  0  0  0
  4  5  1  0  0  0  0
  4  6  1  0  0  0  0
  4  7  1  0  0  0  0
  7  8  1  0  0  0  0
  7  9  1  0  0  0  0
  7 10  1  0  0  0  0
 10 11  1  0  0  0  0
 10 12  1  0  0  0  0
 10 13  1  0  0  0  0
M  END
> <VConfSearch Rank>
309

> <Conf_Id>
0

> <Delta U+W>
0.000

> <U+W>
-58.332

> <U>
8.390

> <W>
-66.722

> <W(PB)>
-68.455

> <W(SA)>
1.733

> <Valence>
6.333

> <Coulomb>
1.215

> <VdW>
0.842

> <VdW6>
-3.344

> <VdW12>
4.186

> <Bond>
0.091

> <Angle>
2.713

> <Pdih>
3.529

> <Idih>
0.000

> <Tether>
0.000

$$$$
VeraChem MOL file


 13 12  0  0  0  0  0  0  0  0999 V2000     
   21.4805   20.4204   21.2572 C   0  0  0  0  0  0  0  0  0  0  0  0
   22.2376   20.7844   22.1344 O   0  5  0  0  0  0  0  0  0  0  0  0
   21.2488   21.0711   20.2580 O   0  0  0  0  0  0  0  0  0  0  0  0
   20.7680   19.0830   21.4283 C   0  0  0  0  0  0  0  0  0  0  0  0
   21.4343   18.4094   21.9809 H   0  0  0  0  0  0  0  0  0  0  0  0
   20.6189   18.6458   20.4335 H   0  0  0  0  0  0  0  0  0  0  0  0
   19.4114   19.2108   22.1627 C   0  0  0  0  0  0  0  0  0  0  0  0
   19.5718   19.6587   23.1534 H   0  0  0  0  0  0  0  0  0  0  0  0
   18.7562   19.8950   21.6057 H   0  0  0  0  0  0  0  0  0  0  0  0
   18.7172   17.8430   22.3197 C   0  0  0  0  0  0  0  0  0  0  0  0
   17.7580   17.9539   22.8421 H   0  0  0  0  0  0  0  0  0  0  0  0
   18.5191   17.3883   21.3402 H   0  0  0  0  0  0  0  0  0  0  0  0
   19.3410   17.1502   22.8998 H   0  0  0  0  0  0  0  0  0  0  0  0
  1  2  1  0  0  0  0
  1  3  2  0  0  0  0
  1  4  1  0  0  0  0
  4  5  1  0  0  0  0
  4  6  1  0  0  0  0
  4  7  1  0  0  0  0
  7  8  1  0  0  0  0
  7  9  1  0  0  0  0
  7 10  1  0  0  0  0
 10 11  1  0  0  0  0
 10 12  1  0  0  0  0
 10 13  1  0  0  0  0
M  END
> <VConfSearch Rank>
310

> <Conf_Id>
1

> <Delta U+W>
-1.339

> <U+W>
-59.672

> <U>
7.389

> <W>
-67.061

> <W(PB)>
-68.767

> <W(SA)>
1.707

> <Valence>
5.822

> <Coulomb>
1.255

> <VdW>
0.312

> <VdW6>
-3.061

> <VdW12>
3.372

> <Bond>
0.059

> <Angle>
2.241

> <Pdih>
3.522

> <Idih>
0.000

> <Tether>
0.000

$$$$
VeraChem MOL file


 13 12  0  0  0  0  0  0  0  0999 V2000     
   18.8848   17.6851   22.1608 C   0  0  0  0  0  0  0  0  0  0  0  0
   18.5333   17.4248   23.2943 O   0  5  0  0  0  0  0  0  0  0  0  0
   18.1207   17.7346   21.2176 O   0  0  0  0  0  0  0  0  0  0  0  0
   20.3703   17.9270   21.9049 C   0  0  0  0  0  0  0  0  0  0  0  0
   20.5624   17.8275   20.8295 H   0  0  0  0  0  0  0  0  0  0  0  0
   20.9232   17.1206   22.4013 H   0  0  0  0  0  0  0  0  0  0  0  0
   20.8873   19.2965   22.4151 C   0  0  0  0  0  0  0  0  0  0  0  0
   20.6531   19.4032   23.4836 H   0  0  0  0  0  0  0  0  0  0  0  0
   21.9821   19.3231   22.3279 H   0  0  0  0  0  0  0  0  0  0  0  0
   20.2904   20.4827   21.6299 C   0  0  0  0  0  0  0  0  0  0  0  0
   19.1974   20.5133   21.7317 H   0  0  0  0  0  0  0  0  0  0  0  0
   20.6914   21.4343   22.0025 H   0  0  0  0  0  0  0  0  0  0  0  0
   20.5319   20.4074   20.5616 H   0  0  0  0  0  0  0  0  0  0  0  0
  1  2  1  0  0  0  0
  1  3  2  0  0  0  0
  1  4  1  0  0  0  0
  4  5  1  0  0  0  0
  4  6  1  0  0  0  0
  4  7  1  0  0  0  0
  7  8  1  0  0  0  0
  7  9  1  0  0  0  0
  7 10  1  0  0  0  0
 10 11  1  0  0  0  0
 10 12  1  0  0  0  0
 10 13  1  0  0  0  0
M  END
> <VConfSearch Rank>
311

> <Conf_Id>
4

> <Delta U+W>
0.281

> <U+W>
-58.051

> <U>
9.781

> <W>
-67.832

> <W(PB)>
-69.535

> <W(SA)>
1.703

> <Valence>
6.123

> <Coulomb>
3.449

> <VdW>
0.209

> <VdW6>
-3.762

> <VdW12>
3.972

> <Bond>
0.078

> <Angle>
2.428

> <Pdih>
3.616

> <Idih>
0.002

> <Tether>
0.000

$$$$
VeraChem MOL file


 13 12  0  0  0  0  0  0  0  0999 V2000     
   19.2620   17.4146   21.7381 C   0  0  0  0  0  0  0  0  0  0  0  0
   18.0811   17.5532   21.9873 O   0  5  0  0  0  0  0  0  0  0  0  0
   19.6782   16.7214   20.8313 O   0  0  0  0  0  0  0  0  0  0  0  0
   20.2798   18.1186   22.6321 C   0  0  0  0  0  0  0  0  0  0  0  0
   21.0392   17.3778   22.9093 H   0  0  0  0  0  0  0  0  0  0  0  0
   19.7809   18.4234   23.5602 H   0  0  0  0  0  0  0  0  0  0  0  0
   20.9683   19.3398   21.9702 C   0  0  0  0  0  0  0  0  0  0  0  0
   21.7837   19.6884   22.6187 H   0  0  0  0  0  0  0  0  0  0  0  0
   21.4294   19.0322   21.0211 H   0  0  0  0  0  0  0  0  0  0  0  0
   19.9895   20.5057   21.7203 C   0  0  0  0  0  0  0  0  0  0  0  0
   19.5337   20.8437   22.6602 H   0  0  0  0  0  0  0  0  0  0  0  0
   20.5120   21.3597   21.2699 H   0  0  0  0  0  0  0  0  0  0  0  0
   19.1831   20.2048   21.0384 H   0  0  0  0  0  0  0  0  0  0  0  0
  1  2  1  0  0  0  0
  1  3  2  0  0  0  0
  1  4  1  0  0  0  0
  4  5  1  0  0  0  0
  4  6  1  0  0  0  0
  4  7  1  0  0  0  0
  7  8  1  0  0  0  0
  7  9  1  0  0  0  0
  7 10  1  0  0  0  0
 10 11  1  0  0  0  0
 10 12  1  0  0  0  0
 10 13  1  0  0  0  0
M  END
> <VConfSearch Rank>
312

> <Conf_Id>
36

> <Delta U+W>
0.272

> <U+W>
-58.060

> <U>
9.781

> <W>
-67.841

> <W(PB)>
-69.537

> <W(SA)>
1.696

> <Valence>
6.123

> <Coulomb>
3.449

> <VdW>
0.209

> <VdW6>
-3.762

> <VdW12>
3.972

> <Bond>
0.078

> <Angle>
2.428

> <Pdih>
3.616

> <Idih>
0.002

> <Tether>
0.000

$$$$
VeraChem MOL file


 13 12  0  0  0  0  0  0  0  0999 V2000     
   21.4338   17.4074   21.6888 C   0  0  0  0  0  0  0  0  0  0  0  0
   22.4664   18.0423   21.5984 O   0  5  0  0  0  0  0  0  0  0  0  0
   21.4016   16.1934   21.6873 O   0  0  0  0  0  0  0  0  0  0  0  0
   20.0974   18.1420   21.8111 C   0  0  0  0  0  0  0  0  0  0  0  0
   19.6198   17.8014   22.7375 H   0  0  0  0  0  0  0  0  0  0  0  0
   19.4626   17.8077   20.9819 H   0  0  0  0  0  0  0  0  0  0  0  0
   20.1877   19.6905   21.8086 C   0  0  0  0  0  0  0  0  0  0  0  0
   20.8266   20.0233   22.6385 H   0  0  0  0  0  0  0  0  0  0  0  0
   20.6693   20.0296   20.8808 H   0  0  0  0  0  0  0  0  0  0  0  0
   18.7960   20.3423   21.9355 C   0  0  0  0  0  0  0  0  0  0  0  0
   18.3059   20.0432   22.8713 H   0  0  0  0  0  0  0  0  0  0  0  0
   18.8801   21.4369   21.9318 H   0  0  0  0  0  0  0  0  0  0  0  0
   18.1472   20.0495   21.0995 H   0  0  0  0  0  0  0  0  0  0  0  0
  1  2  1  0  0  0  0
  1  3  2  0  0  0  0
  1  4  1  0  0  0  0
  4  5  1  0  0  0  0
  4  6  1  0  0  0  0
  4  7  1  0  0  0  0
  7  8  1  0  0  0  0
  7  9  1  0  0  0  0
  7 10  1  0  0  0  0
 10 11  1  0  0  0  0
 10 12  1  0  0  0  0
 10 13  1  0  0  0  0
M  END
> <VConfSearch Rank>
313

> <Conf_Id>
0

> <Delta U+W>
0.000

> <U+W>
-58.332

> <U>
8.390

> <W>
-66.722

> <W(PB)>
-68.455

> <W(SA)>
1.733

> <Valence>
6.333

> <Coulomb>
1.215

> <VdW>
0.842

> <VdW6>
-3.344

> <VdW12>
4.186

> <Bond>
0.091

> <Angle>
2.713

> <Pdih>
3.529

> <Idih>
0.000

> <Tether>
0.000

$$$$
VeraChem MOL file


 13 12  0  0  0  0  0  0  0  0999 V2000     
   20.7505   20.8938   22.4974 C   0  0  0  0  0  0  0  0  0  0  0  0
   21.2356   20.9030   23.6110 O   0  5  0  0  0  0  0  0  0  0  0  0
   20.2998   21.8819   21.9537 O   0  0  0  0  0  0  0  0  0  0  0  0
   20.6869   19.5664   21.7494 C   0  0  0  0  0  0  0  0  0  0  0  0
   21.5569   18.9667   22.0436 H   0  0  0  0  0  0  0  0  0  0  0  0
   20.7852   19.7740   20.6768 H   0  0  0  0  0  0  0  0  0  0  0  0
   19.3815   18.7809   22.0225 C   0  0  0  0  0  0  0  0  0  0  0  0
   19.2889   18.5875   23.1003 H   0  0  0  0  0  0  0  0  0  0  0  0
   18.5170   19.3949   21.7332 H   0  0  0  0  0  0  0  0  0  0  0  0
   19.3481   17.4455   21.2526 C   0  0  0  0  0  0  0  0  0  0  0  0
   18.4159   16.9034   21.4588 H   0  0  0  0  0  0  0  0  0  0  0  0
   19.4094   17.6148   20.1695 H   0  0  0  0  0  0  0  0  0  0  0  0
   20.1871   16.8013   21.5472 H   0  0  0  0  0  0  0  0  0  0  0  0
  1  2  1  0  0  0  0
  1  3  2  0  0  0  0
  1  4  1  0  0  0  0
  4  5  1  0  0  0  0
  4  6  1  0  0  0  0
  4  7  1  0  0  0  0
  7  8  1  0  0  0  0
  7  9  1  0  0  0  0
  7 10  1  0  0  0  0
 10 11  1  0  0  0  0
 10 12  1  0  0  0  0
 10 13  1  0  0  0  0
M  END
> <VConfSearch Rank>
314

> <Conf_Id>
1

> <Delta U+W>
-1.339

> <U+W>
-59.672

> <U>
7.389

> <W>
-67.061

> <W(PB)>
-68.767

> <W(SA)>
1.707

> <Valence>
5.822

> <Coulomb>
1.255

> <VdW>
0.312

> <VdW6>
-3.061

> <VdW12>
3.372

> <Bond>
0.059

> <Angle>
2.241

> <Pdih>
3.522

> <Idih>
0.000

> <Tether>
0.000

$$$$
VeraChem MOL file


 13 12  0  0  0  0  0  0  0  0999 V2000     
   20.6212   17.2737   22.3058 C   0  0  0  0  0  0  0  0  0  0  0  0
   21.3308   16.7635   21.4618 O   0  5  0  0  0  0  0  0  0  0  0  0
   20.7727   17.1048   23.4992 O   0  0  0  0  0  0  0  0  0  0  0  0
   19.4568   18.1434   21.8379 C   0  0  0  0  0  0  0  0  0  0  0  0
   18.7472   18.2560   22.6667 H   0  0  0  0  0  0  0  0  0  0  0  0
   18.9346   17.5925   21.0466 H   0  0  0  0  0  0  0  0  0  0  0  0
   19.8795   19.5360   21.3039 C   0  0  0  0  0  0  0  0  0  0  0  0
   20.6212   19.4129   20.5023 H   0  0  0  0  0  0  0  0  0  0  0  0
   19.0070   20.0288   20.8536 H   0  0  0  0  0  0  0  0  0  0  0  0
   20.4547   20.4432   22.4112 C   0  0  0  0  0  0  0  0  0  0  0  0
   21.3568   20.0011   22.8546 H   0  0  0  0  0  0  0  0  0  0  0  0
   20.7251   21.4263   22.0043 H   0  0  0  0  0  0  0  0  0  0  0  0
   19.7206   20.5976   23.2128 H   0  0  0  0  0  0  0  0  0  0  0  0
  1  2  1  0  0  0  0
  1  3  2  0  0  0  0
  1  4  1  0  0  0  0
  4  5  1  0  0  0  0
  4  6  1  0  0  0  0
  4  7  1  0  0  0  0
  7  8  1  0  0  0  0
  7  9  1  0  0  0  0
  7 10  1  0  0  0  0
 10 11  1  0  0  0  0
 10 12  1  0  0  0  0
 10 13  1  0  0  0  0
M  END
> <VConfSearch Rank>
315

> <Conf_Id>
4

> <Delta U+W>
0.281

> <U+W>
-58.051

> <U>
9.781

> <W>
-67.832

> <W(PB)>
-69.535

> <W(SA)>
1.703

> <Valence>
6.123

> <Coulomb>
3.449

> <VdW>
0.209

> <VdW6>
-3.762

> <VdW12>
3.972

> <Bond>
0.078

> <Angle>
2.428

> <Pdih>
3.616

> <Idih>
0.002

> <Tether>
0.000

$$$$
VeraChem MOL file


 13 12  0  0  0  0  0  0  0  0999 V2000     
   21.8994   19.0767   21.8481 C   0  0  0  0  0  0  0  0  0  0  0  0
   22.2027   20.1454   21.3563 O   0  5  0  0  0  0  0  0  0  0  0  0
   22.5416   18.5379   22.7275 O   0  0  0  0  0  0  0  0  0  0  0  0
   20.6672   18.3537   21.3099 C   0  0  0  0  0  0  0  0  0  0  0  0
   20.9559   17.3132   21.1190 H   0  0  0  0  0  0  0  0  0  0  0  0
   20.3987   18.7909   20.3404 H   0  0  0  0  0  0  0  0  0  0  0  0
   19.4465   18.3831   22.2652 C   0  0  0  0  0  0  0  0  0  0  0  0
   18.6651   17.7189   21.8711 H   0  0  0  0  0  0  0  0  0  0  0  0
   19.7373   17.9813   23.2459 H   0  0  0  0  0  0  0  0  0  0  0  0
   18.8638   19.8013   22.4351 C   0  0  0  0  0  0  0  0  0  0  0  0
   18.5458   20.2134   21.4684 H   0  0  0  0  0  0  0  0  0  0  0  0
   17.9908   19.7837   23.1004 H   0  0  0  0  0  0  0  0  0  0  0  0
   19.6063   20.4837   22.8696 H   0  0  0  0  0  0  0  0  0  0  0  0
  1  2  1  0  0  0  0
  1  3  2  0  0  0  0
  1  4  1  0  0  0  0
  4  5  1  0  0  0  0
  4  6  1  0  0  0  0
  4  7  1  0  0  0  0
  7  8  1  0  0  0  0
  7  9  1  0  0  0  0
  7 10  1  0  0  0  0
 10 11  1  0  0  0  0
 10 12  1  0  0  0  0
 10 13  1  0  0  0  0
M  END
> <VConfSearch Rank>
316

> <Conf_Id>
36

> <Delta U+W>
0.272

> <U+W>
-58.060

> <U>
9.781

> <W>
-67.841

> <W(PB)>
-69.537

> <W(SA)>
1.696

> <Valence>
6.123

> <Coulomb>
3.449

> <VdW>
0.209

> <VdW6>
-3.762

> <VdW12>
3.972

> <Bond>
0.078

> <Angle>
2.428

> <Pdih>
3.616

> <Idih>
0.002

> <Tether>
0.000

$$$$
VeraChem MOL file


 13 12  0  0  0  0  0  0  0  0999 V2000     
   21.1826   17.2288   21.5714 C   0  0  0  0  0  0  0  0  0  0  0  0
   21.9760   17.6081   20.7323 O   0  5  0  0  0  0  0  0  0  0  0  0
   21.1945   16.1056   22.0330 O   0  0  0  0  0  0  0  0  0  0  0  0
   20.1079   18.1863   22.0899 C   0  0  0  0  0  0  0  0  0  0  0  0
   20.2265   18.2539   23.1779 H   0  0  0  0  0  0  0  0  0  0  0  0
   19.1341   17.7183   21.9025 H   0  0  0  0  0  0  0  0  0  0  0  0
   20.1314   19.6089   21.4723 C   0  0  0  0  0  0  0  0  0  0  0  0
   21.1091   20.0749   21.6587 H   0  0  0  0  0  0  0  0  0  0  0  0
   20.0154   19.5387   20.3817 H   0  0  0  0  0  0  0  0  0  0  0  0
   19.0157   20.5006   22.0535 C   0  0  0  0  0  0  0  0  0  0  0  0
   19.1277   20.6121   23.1400 H   0  0  0  0  0  0  0  0  0  0  0  0
   19.0483   21.5021   21.6049 H   0  0  0  0  0  0  0  0  0  0  0  0
   18.0252   20.0714   21.8528 H   0  0  0  0  0  0  0  0  0  0  0  0
  1  2  1  0  0  0  0
  1  3  2  0  0  0  0
  1  4  1  0  0  0  0
  4  5  1  0  0  0  0
  4  6  1  0  0  0  0
  4  7  1  0  0  0  0
  7  8  1  0  0  0  0
  7  9  1  0  0  0  0
  7 10  1  0  0  0  0
 10 11  1  0  0  0  0
 10 12  1  0  0  0  0
 10 13  1  0  0  0  0
M  END
> <VConfSearch Rank>
317

> <Conf_Id>
0

> <Delta U+W>
0.000

> <U+W>
-58.332

> <U>
8.390

> <W>
-66.722

> <W(PB)>
-68.455

> <W(SA)>
1.733

> <Valence>
6.333

> <Coulomb>
1.215

> <VdW>
0.842

> <VdW6>
-3.344

> <VdW12>
4.186

> <Bond>
0.091

> <Angle>
2.713

> <Pdih>
3.529

> <Idih>
0.000

> <Tether>
0.000

$$$$
VeraChem MOL file


 13 12  0  0  0  0  0  0  0  0999 V2000     
   19.0895   18.4774   23.6580 C   0  0  0  0  0  0  0  0  0  0  0  0
   19.5257   19.0152   24.6559 O   0  5  0  0  0  0  0  0  0  0  0  0
   18.5283   17.4002   23.6672 O   0  0  0  0  0  0  0  0  0  0  0  0
   19.2732   19.1837   22.3190 C   0  0  0  0  0  0  0  0  0  0  0  0
   19.2394   20.2656   22.4963 H   0  0  0  0  0  0  0  0  0  0  0  0
   18.4169   18.9337   21.6809 H   0  0  0  0  0  0  0  0  0  0  0  0
   20.5951   18.8011   21.6105 C   0  0  0  0  0  0  0  0  0  0  0  0
   21.4449   19.0467   22.2627 H   0  0  0  0  0  0  0  0  0  0  0  0
   20.6222   17.7146   21.4470 H   0  0  0  0  0  0  0  0  0  0  0  0
   20.7507   19.5311   20.2613 C   0  0  0  0  0  0  0  0  0  0  0  0
   21.6928   19.2473   19.7745 H   0  0  0  0  0  0  0  0  0  0  0  0
   19.9275   19.2777   19.5804 H   0  0  0  0  0  0  0  0  0  0  0  0
   20.7566   20.6200   20.4023 H   0  0  0  0  0  0  0  0  0  0  0  0
  1  2  1  0  0  0  0
  1  3  2  0  0  0  0
  1  4  1  0  0  0  0
  4  5  1  0  0  0  0
  4  6  1  0  0  0  0
  4  7  1  0  0  0  0
  7  8  1  0  0  0  0
  7  9  1  0  0  0  0
  7 10  1  0  0  0  0
 10 11  1  0  0  0  0
 10 12  1  0  0  0  0
 10 13  1  0  0  0  0
M  END
> <VConfSearch Rank>
318

> <Conf_Id>
1

> <Delta U+W>
-1.339

> <U+W>
-59.672

> <U>
7.389

> <W>
-67.061

> <W(PB)>
-68.767

> <W(SA)>
1.707

> <Valence>
5.822

> <Coulomb>
1.255

> <VdW>
0.312

> <VdW6>
-3.061

> <VdW12>
3.372

> <Bond>
0.059

> <Angle>
2.241

> <Pdih>
3.522

> <Idih>
0.000

> <Tether>
0.000

$$$$
VeraChem MOL file


 13 12  0  0  0  0  0  0  0  0999 V2000     
   18.3626   19.2896   22.0157 C   0  0  0  0  0  0  0  0  0  0  0  0
   17.6535   18.3566   22.3360 O   0  5  0  0  0  0  0  0  0  0  0  0
   18.1615   20.4350   22.3672 O   0  0  0  0  0  0  0  0  0  0  0  0
   19.5472   19.0108   21.0939 C   0  0  0  0  0  0  0  0  0  0  0  0
   19.8783   19.9580   20.6507 H   0  0  0  0  0  0  0  0  0  0  0  0
   19.1807   18.3868   20.2700 H   0  0  0  0  0  0  0  0  0  0  0  0
   20.7380   18.3010   21.7878 C   0  0  0  0  0  0  0  0  0  0  0  0
   20.3872   17.3744   22.2635 H   0  0  0  0  0  0  0  0  0  0  0  0
   21.4740   18.0063   21.0274 H   0  0  0  0  0  0  0  0  0  0  0  0
   21.4287   19.1963   22.8373 C   0  0  0  0  0  0  0  0  0  0  0  0
   20.7317   19.4745   23.6388 H   0  0  0  0  0  0  0  0  0  0  0  0
   22.2778   18.6718   23.2945 H   0  0  0  0  0  0  0  0  0  0  0  0
   21.8069   20.1190   22.3780 H   0  0  0  0  0  0  0  0  0  0  0  0
  1  2  1  0  0  0  0
  1  3  2  0  0  0  0
  1  4  1  0  0  0  0
  4  5  1  0  0  0  0
  4  6  1  0  0  0  0
  4  7  1  0  0  0  0
  7  8  1  0  0  0  0
  7  9  1  0  0  0  0
  7 10  1  0  0  0  0
 10 11  1  0  0  0  0
 10 12  1  0  0  0  0
 10 13  1  0  0  0  0
M  END
> <VConfSearch Rank>
319

> <Conf_Id>
4

> <Delta U+W>
0.281

> <U+W>
-58.051

> <U>
9.781

> <W>
-67.832

> <W(PB)>
-69.535

> <W(SA)>
1.703

> <Valence>
6.123

> <Coulomb>
3.449

> <VdW>
0.209

> <VdW6>
-3.762

> <VdW12>
3.972

> <Bond>
0.078

> <Angle>
2.428

> <Pdih>
3.616

> <Idih>
0.002

> <Tether>
0.000

$$$$
VeraChem MOL file


 13 12  0  0  0  0  0  0  0  0999 V2000     
   21.7538   18.9872   22.7256 C   0  0  0  0  0  0  0  0  0  0  0  0
   22.0007   17.8970   23.2013 O   0  5  0  0  0  0  0  0  0  0  0  0
   22.5812   19.6741   22.1603 O   0  0  0  0  0  0  0  0  0  0  0  0
   20.3392   19.5412   22.8762 C   0  0  0  0  0  0  0  0  0  0  0  0
   20.4286   20.5725   23.2377 H   0  0  0  0  0  0  0  0  0  0  0  0
   19.8215   18.9746   23.6601 H   0  0  0  0  0  0  0  0  0  0  0  0
   19.5081   19.5238   21.5676 C   0  0  0  0  0  0  0  0  0  0  0  0
   18.5703   20.0726   21.7295 H   0  0  0  0  0  0  0  0  0  0  0  0
   20.0545   20.0583   20.7779 H   0  0  0  0  0  0  0  0  0  0  0  0
   19.1792   18.0922   21.0961 C   0  0  0  0  0  0  0  0  0  0  0  0
   18.6132   17.5469   21.8627 H   0  0  0  0  0  0  0  0  0  0  0  0
   18.5747   18.1159   20.1802 H   0  0  0  0  0  0  0  0  0  0  0  0
   20.0959   17.5269   20.8817 H   0  0  0  0  0  0  0  0  0  0  0  0
  1  2  1  0  0  0  0
  1  3  2  0  0  0  0
  1  4  1  0  0  0  0
  4  5  1  0  0  0  0
  4  6  1  0  0  0  0
  4  7  1  0  0  0  0
  7  8  1  0  0  0  0
  7  9  1  0  0  0  0
  7 10  1  0  0  0  0
 10 11  1  0  0  0  0
 10 12  1  0  0  0  0
 10 13  1  0  0  0  0
M  END
> <VConfSearch Rank>
320

> <Conf_Id>
36

> <Delta U+W>
0.272

> <U+W>
-58.060

> <U>
9.781

> <W>
-67.841

> <W(PB)>
-69.537

> <W(SA)>
1.696

> <Valence>
6.123

> <Coulomb>
3.449

> <VdW>
0.209

> <VdW6>
-3.762

> <VdW12>
3.972

> <Bond>
0.078

> <Angle>
2.428

> <Pdih>
3.616

> <Idih>
0.002

> <Tether>
0.000

$$$$
VeraChem MOL file


 13 12  0  0  0  0  0  0  0  0999 V2000     
   21.1958   17.2306   22.0159 C   0  0  0  0  0  0  0  0  0  0  0  0
   21.8806   17.3158   21.0154 O   0  5  0  0  0  0  0  0  0  0  0  0
   21.2894   16.3125   22.8053 O   0  0  0  0  0  0  0  0  0  0  0  0
   20.1594   18.3134   22.3228 C   0  0  0  0  0  0  0  0  0  0  0  0
   20.3959   18.7225   23.3122 H   0  0  0  0  0  0  0  0  0  0  0  0
   19.1839   17.8194   22.4054 H   0  0  0  0  0  0  0  0  0  0  0  0
   20.0755   19.4654   21.2875 C   0  0  0  0  0  0  0  0  0  0  0  0
   21.0547   19.9573   21.2041 H   0  0  0  0  0  0  0  0  0  0  0  0
   19.8413   19.0530   20.2961 H   0  0  0  0  0  0  0  0  0  0  0  0
   19.0071   20.5061   21.6788 C   0  0  0  0  0  0  0  0  0  0  0  0
   19.2357   20.9564   22.6538 H   0  0  0  0  0  0  0  0  0  0  0  0
   18.9625   21.3126   20.9353 H   0  0  0  0  0  0  0  0  0  0  0  0
   18.0125   20.0448   21.7386 H   0  0  0  0  0  0  0  0  0  0  0  0
  1  2  1  0  0  0  0
  1  3  2  0  0  0  0
  1  4  1  0  0  0  0
  4  5  1  0  0  0  0
  4  6  1  0  0  0  0
  4  7  1  0  0  0  0
  7  8  1  0  0  0  0
  7  9  1  0  0  0  0
  7 10  1  0  0  0  0
 10 11  1  0  0  0  0
 10 12  1  0  0  0  0
 10 13  1  0  0  0  0
M  END
> <VConfSearch Rank>
321

> <Conf_Id>
0

> <Delta U+W>
0.000

> <U+W>
-58.332

> <U>
8.390

> <W>
-66.722

> <W(PB)>
-68.455

> <W(SA)>
1.733

> <Valence>
6.333

> <Coulomb>
1.215

> <VdW>
0.842

> <VdW6>
-3.344

> <VdW12>
4.186

> <Bond>
0.091

> <Angle>
2.713

> <Pdih>
3.529

> <Idih>
0.000

> <Tether>
0.000

$$$$
VeraChem MOL file


 13 12  0  0  0  0  0  0  0  0999 V2000     
   22.0141   19.5763   21.5620 C   0  0  0  0  0  0  0  0  0  0  0  0
   22.8344   18.7304   21.8566 O   0  5  0  0  0  0  0  0  0  0  0  0
   22.2534   20.7671   21.5482 O   0  0  0  0  0  0  0  0  0  0  0  0
   20.6025   19.1201   21.2086 C   0  0  0  0  0  0  0  0  0  0  0  0
   20.6723   18.1391   20.7231 H   0  0  0  0  0  0  0  0  0  0  0  0
   20.1932   19.8186   20.4687 H   0  0  0  0  0  0  0  0  0  0  0  0
   19.6676   19.0398   22.4396 C   0  0  0  0  0  0  0  0  0  0  0  0
   20.0925   18.3453   23.1778 H   0  0  0  0  0  0  0  0  0  0  0  0
   19.6131   20.0251   22.9233 H   0  0  0  0  0  0  0  0  0  0  0  0
   18.2499   18.5761   22.0494 C   0  0  0  0  0  0  0  0  0  0  0  0
   17.6023   18.5254   22.9344 H   0  0  0  0  0  0  0  0  0  0  0  0
   17.7922   19.2718   21.3338 H   0  0  0  0  0  0  0  0  0  0  0  0
   18.2752   17.5790   21.5903 H   0  0  0  0  0  0  0  0  0  0  0  0
  1  2  1  0  0  0  0
  1  3  2  0  0  0  0
  1  4  1  0  0  0  0
  4  5  1  0  0  0  0
  4  6  1  0  0  0  0
  4  7  1  0  0  0  0
  7  8  1  0  0  0  0
  7  9  1  0  0  0  0
  7 10  1  0  0  0  0
 10 11  1  0  0  0  0
 10 12  1  0  0  0  0
 10 13  1  0  0  0  0
M  END
> <VConfSearch Rank>
322

> <Conf_Id>
1

> <Delta U+W>
-1.339

> <U+W>
-59.672

> <U>
7.389

> <W>
-67.061

> <W(PB)>
-68.767

> <W(SA)>
1.707

> <Valence>
5.822

> <Coulomb>
1.255

> <VdW>
0.312

> <VdW6>
-3.061

> <VdW12>
3.372

> <Bond>
0.059

> <Angle>
2.241

> <Pdih>
3.522

> <Idih>
0.000

> <Tether>
0.000

$$$$
VeraChem MOL file


 13 12  0  0  0  0  0  0  0  0999 V2000     
   18.9011   17.6633   22.1008 C   0  0  0  0  0  0  0  0  0  0  0  0
   17.7867   17.9453   21.7076 O   0  5  0  0  0  0  0  0  0  0  0  0
   19.4316   16.5897   21.8963 O   0  0  0  0  0  0  0  0  0  0  0  0
   19.6580   18.7014   22.9256 C   0  0  0  0  0  0  0  0  0  0  0  0
   20.4732   18.1988   23.4605 H   0  0  0  0  0  0  0  0  0  0  0  0
   18.9666   19.0814   23.6872 H   0  0  0  0  0  0  0  0  0  0  0  0
   20.2146   19.8874   22.0968 C   0  0  0  0  0  0  0  0  0  0  0  0
   19.3968   20.3578   21.5330 H   0  0  0  0  0  0  0  0  0  0  0  0
   20.6068   20.6520   22.7812 H   0  0  0  0  0  0  0  0  0  0  0  0
   21.3349   19.4562   21.1278 C   0  0  0  0  0  0  0  0  0  0  0  0
   20.9655   18.7227   20.3988 H   0  0  0  0  0  0  0  0  0  0  0  0
   21.7196   20.3210   20.5718 H   0  0  0  0  0  0  0  0  0  0  0  0
   22.1729   19.0030   21.6735 H   0  0  0  0  0  0  0  0  0  0  0  0
  1  2  1  0  0  0  0
  1  3  2  0  0  0  0
  1  4  1  0  0  0  0
  4  5  1  0  0  0  0
  4  6  1  0  0  0  0
  4  7  1  0  0  0  0
  7  8  1  0  0  0  0
  7  9  1  0  0  0  0
  7 10  1  0  0  0  0
 10 11  1  0  0  0  0
 10 12  1  0  0  0  0
 10 13  1  0  0  0  0
M  END
> <VConfSearch Rank>
323

> <Conf_Id>
4

> <Delta U+W>
0.281

> <U+W>
-58.051

> <U>
9.781

> <W>
-67.832

> <W(PB)>
-69.535

> <W(SA)>
1.703

> <Valence>
6.123

> <Coulomb>
3.449

> <VdW>
0.209

> <VdW6>
-3.762

> <VdW12>
3.972

> <Bond>
0.078

> <Angle>
2.428

> <Pdih>
3.616

> <Idih>
0.002

> <Tether>
0.000

$$$$
VeraChem MOL file


 13 12  0  0  0  0  0  0  0  0999 V2000     
   18.7024   17.8693   22.0468 C   0  0  0  0  0  0  0  0  0  0  0  0
   18.2361   17.8564   23.1686 O   0  5  0  0  0  0  0  0  0  0  0  0
   18.0246   17.8264   21.0394 O   0  0  0  0  0  0  0  0  0  0  0  0
   20.2208   17.9050   21.8924 C   0  0  0  0  0  0  0  0  0  0  0  0
   20.4941   17.1288   21.1676 H   0  0  0  0  0  0  0  0  0  0  0  0
   20.6780   17.6209   22.8482 H   0  0  0  0  0  0  0  0  0  0  0  0
   20.7786   19.2717   21.4190 C   0  0  0  0  0  0  0  0  0  0  0  0
   21.8479   19.1646   21.1910 H   0  0  0  0  0  0  0  0  0  0  0  0
   20.2841   19.5663   20.4827 H   0  0  0  0  0  0  0  0  0  0  0  0
   20.5973   20.3813   22.4754 C   0  0  0  0  0  0  0  0  0  0  0  0
   21.1034   20.1167   23.4131 H   0  0  0  0  0  0  0  0  0  0  0  0
   21.0196   21.3291   22.1173 H   0  0  0  0  0  0  0  0  0  0  0  0
   19.5343   20.5465   22.6958 H   0  0  0  0  0  0  0  0  0  0  0  0
  1  2  1  0  0  0  0
  1  3  2  0  0  0  0
  1  4  1  0  0  0  0
  4  5  1  0  0  0  0
  4  6  1  0  0  0  0
  4  7  1  0  0  0  0
  7  8  1  0  0  0  0
  7  9  1  0  0  0  0
  7 10  1  0  0  0  0
 10 11  1  0  0  0  0
 10 12  1  0  0  0  0
 10 13  1  0  0  0  0
M  END
> <VConfSearch Rank>
324

> <Conf_Id>
36

> <Delta U+W>
0.272

> <U+W>
-58.060

> <U>
9.781

> <W>
-67.841

> <W(PB)>
-69.537

> <W(SA)>
1.696

> <Valence>
6.123

> <Coulomb>
3.449

> <VdW>
0.209

> <VdW6>
-3.762

> <VdW12>
3.972

> <Bond>
0.078

> <Angle>
2.428

> <Pdih>
3.616

> <Idih>
0.002

> <Tether>
0.000

$$$$
VeraChem MOL file


 13 12  0  0  0  0  0  0  0  0999 V2000     
   18.4206   20.3154   22.3235 C   0  0  0  0  0  0  0  0  0  0  0  0
   18.2240   20.8368   21.2434 O   0  5  0  0  0  0  0  0  0  0  0  0
   17.7798   20.5914   23.3176 O   0  0  0  0  0  0  0  0  0  0  0  0
   19.5183   19.2598   22.4701 C   0  0  0  0  0  0  0  0  0  0  0  0
   19.0457   18.3460   22.8493 H   0  0  0  0  0  0  0  0  0  0  0  0
   20.2079   19.6099   23.2475 H   0  0  0  0  0  0  0  0  0  0  0  0
   20.3098   18.9401   21.1751 C   0  0  0  0  0  0  0  0  0  0  0  0
   19.6167   18.5922   20.3965 H   0  0  0  0  0  0  0  0  0  0  0  0
   20.7802   19.8578   20.7951 H   0  0  0  0  0  0  0  0  0  0  0  0
   21.3917   17.8686   21.4188 C   0  0  0  0  0  0  0  0  0  0  0  0
   20.9431   16.9301   21.7701 H   0  0  0  0  0  0  0  0  0  0  0  0
   21.9406   17.6559   20.4921 H   0  0  0  0  0  0  0  0  0  0  0  0
   22.1160   18.2058   22.1720 H   0  0  0  0  0  0  0  0  0  0  0  0
  1  2  1  0  0  0  0
  1  3  2  0  0  0  0
  1  4  1  0  0  0  0
  4  5  1  0  0  0  0
  4  6  1  0  0  0  0
  4  7  1  0  0  0  0
  7  8  1  0  0  0  0
  7  9  1  0  0  0  0
  7 10  1  0  0  0  0
 10 11  1  0  0  0  0
 10 12  1  0  0  0  0
 10 13  1  0  0  0  0
M  END
> <VConfSearch Rank>
325

> <Conf_Id>
0

> <Delta U+W>
0.000

> <U+W>
-58.332

> <U>
8.390

> <W>
-66.722

> <W(PB)>
-68.455

> <W(SA)>
1.733

> <Valence>
6.333

> <Coulomb>
1.215

> <VdW>
0.842

> <VdW6>
-3.344

> <VdW12>
4.186

> <Bond>
0.091

> <Angle>
2.713

> <Pdih>
3.529

> <Idih>
0.000

> <Tether>
0.000

$$$$
VeraChem MOL file


 13 12  0  0  0  0  0  0  0  0999 V2000     
   21.3020   17.4201   21.4931 C   0  0  0  0  0  0  0  0  0  0  0  0
   21.7540   16.8829   22.4843 O   0  5  0  0  0  0  0  0  0  0  0  0
   21.8462   17.3922   20.4076 O   0  0  0  0  0  0  0  0  0  0  0  0
   19.9902   18.1868   21.6229 C   0  0  0  0  0  0  0  0  0  0  0  0
   19.3766   17.6875   22.3827 H   0  0  0  0  0  0  0  0  0  0  0  0
   19.4527   18.1074   20.6701 H   0  0  0  0  0  0  0  0  0  0  0  0
   20.1945   19.6748   21.9969 C   0  0  0  0  0  0  0  0  0  0  0  0
   20.7422   19.7419   22.9473 H   0  0  0  0  0  0  0  0  0  0  0  0
   20.8181   20.1620   21.2343 H   0  0  0  0  0  0  0  0  0  0  0  0
   18.8510   20.4212   22.1203 C   0  0  0  0  0  0  0  0  0  0  0  0
   19.0162   21.4736   22.3857 H   0  0  0  0  0  0  0  0  0  0  0  0
   18.2977   20.3935   21.1723 H   0  0  0  0  0  0  0  0  0  0  0  0
   18.2212   19.9702   22.8985 H   0  0  0  0  0  0  0  0  0  0  0  0
  1  2  1  0  0  0  0
  1  3  2  0  0  0  0
  1  4  1  0  0  0  0
  4  5  1  0  0  0  0
  4  6  1  0  0  0  0
  4  7  1  0  0  0  0
  7  8  1  0  0  0  0
  7  9  1  0  0  0  0
  7 10  1  0  0  0  0
 10 11  1  0  0  0  0
 10 12  1  0  0  0  0
 10 13  1  0  0  0  0
M  END
> <VConfSearch Rank>
326

> <Conf_Id>
1

> <Delta U+W>
-1.339

> <U+W>
-59.672

> <U>
7.389

> <W>
-67.061

> <W(PB)>
-68.767

> <W(SA)>
1.707

> <Valence>
5.822

> <Coulomb>
1.255

> <VdW>
0.312

> <VdW6>
-3.061

> <VdW12>
3.372

> <Bond>
0.059

> <Angle>
2.241

> <Pdih>
3.522

> <Idih>
0.000

> <Tether>
0.000

$$$$
VeraChem MOL file


 13 12  0  0  0  0  0  0  0  0999 V2000     
   19.2233   19.4406   20.5227 C   0  0  0  0  0  0  0  0  0  0  0  0
   19.7664   20.2557   19.8038 O   0  5  0  0  0  0  0  0  0  0  0  0
   18.6014   18.4857   20.1018 O   0  0  0  0  0  0  0  0  0  0  0  0
   19.2976   19.6498   22.0331 C   0  0  0  0  0  0  0  0  0  0  0  0
   18.5176   19.0440   22.5106 H   0  0  0  0  0  0  0  0  0  0  0  0
   19.0486   20.6993   22.2306 H   0  0  0  0  0  0  0  0  0  0  0  0
   20.6810   19.3229   22.6518 C   0  0  0  0  0  0  0  0  0  0  0  0
   21.4599   19.9042   22.1387 H   0  0  0  0  0  0  0  0  0  0  0  0
   20.6897   19.6423   23.7029 H   0  0  0  0  0  0  0  0  0  0  0  0
   21.0198   17.8196   22.5792 C   0  0  0  0  0  0  0  0  0  0  0  0
   21.0635   17.4748   21.5376 H   0  0  0  0  0  0  0  0  0  0  0  0
   21.9948   17.6200   23.0425 H   0  0  0  0  0  0  0  0  0  0  0  0
   20.2647   17.2212   23.1056 H   0  0  0  0  0  0  0  0  0  0  0  0
  1  2  1  0  0  0  0
  1  3  2  0  0  0  0
  1  4  1  0  0  0  0
  4  5  1  0  0  0  0
  4  6  1  0  0  0  0
  4  7  1  0  0  0  0
  7  8  1  0  0  0  0
  7  9  1  0  0  0  0
  7 10  1  0  0  0  0
 10 11  1  0  0  0  0
 10 12  1  0  0  0  0
 10 13  1  0  0  0  0
M  END
> <VConfSearch Rank>
327

> <Conf_Id>
4

> <Delta U+W>
0.281

> <U+W>
-58.051

> <U>
9.781

> <W>
-67.832

> <W(PB)>
-69.535

> <W(SA)>
1.703

> <Valence>
6.123

> <Coulomb>
3.449

> <VdW>
0.209

> <VdW6>
-3.762

> <VdW12>
3.972

> <Bond>
0.078

> <Angle>
2.428

> <Pdih>
3.616

> <Idih>
0.002

> <Tether>
0.000

$$$$
VeraChem MOL file


 13 12  0  0  0  0  0  0  0  0999 V2000     
   19.0889   19.7094   20.7302 C   0  0  0  0  0  0  0  0  0  0  0  0
   18.0868   19.0403   20.5756 O   0  5  0  0  0  0  0  0  0  0  0  0
   19.0981   20.9232   20.6790 O   0  0  0  0  0  0  0  0  0  0  0  0
   20.4138   18.9884   20.9657 C   0  0  0  0  0  0  0  0  0  0  0  0
   21.1520   19.4304   20.2859 H   0  0  0  0  0  0  0  0  0  0  0  0
   20.2998   17.9382   20.6699 H   0  0  0  0  0  0  0  0  0  0  0  0
   20.9355   19.0791   22.4227 C   0  0  0  0  0  0  0  0  0  0  0  0
   21.9538   18.6691   22.4666 H   0  0  0  0  0  0  0  0  0  0  0  0
   21.0066   20.1339   22.7228 H   0  0  0  0  0  0  0  0  0  0  0  0
   20.0406   18.3131   23.4189 C   0  0  0  0  0  0  0  0  0  0  0  0
   19.9738   17.2508   23.1499 H   0  0  0  0  0  0  0  0  0  0  0  0
   20.4480   18.3809   24.4360 H   0  0  0  0  0  0  0  0  0  0  0  0
   19.0233   18.7263   23.4339 H   0  0  0  0  0  0  0  0  0  0  0  0
  1  2  1  0  0  0  0
  1  3  2  0  0  0  0
  1  4  1  0  0  0  0
  4  5  1  0  0  0  0
  4  6  1  0  0  0  0
  4  7  1  0  0  0  0
  7  8  1  0  0  0  0
  7  9  1  0  0  0  0
  7 10  1  0  0  0  0
 10 11  1  0  0  0  0
 10 12  1  0  0  0  0
 10 13  1  0  0  0  0
M  END
> <VConfSearch Rank>
328

> <Conf_Id>
36

> <Delta U+W>
0.272

> <U+W>
-58.060

> <U>
9.781

> <W>
-67.841

> <W(PB)>
-69.537

> <W(SA)>
1.696

> <Valence>
6.123

> <Coulomb>
3.449

> <VdW>
0.209

> <VdW6>
-3.762

> <VdW12>
3.972

> <Bond>
0.078

> <Angle>
2.428

> <Pdih>
3.616

> <Idih>
0.002

> <Tether>
0.000

$$$$
VeraChem MOL file


 13 12  0  0  0  0  0  0  0  0999 V2000     
   18.2497   17.9316   21.3097 C   0  0  0  0  0  0  0  0  0  0  0  0
   18.2783   18.0352   20.0990 O   0  5  0  0  0  0  0  0  0  0  0  0
   17.3694   17.3411   21.9024 O   0  0  0  0  0  0  0  0  0  0  0  0
   19.3586   18.5633   22.1536 C   0  0  0  0  0  0  0  0  0  0  0  0
   19.8118   17.7633   22.7510 H   0  0  0  0  0  0  0  0  0  0  0  0
   18.8811   19.2564   22.8563 H   0  0  0  0  0  0  0  0  0  0  0  0
   20.4605   19.3065   21.3539 C   0  0  0  0  0  0  0  0  0  0  0  0
   20.9357   18.6109   20.6483 H   0  0  0  0  0  0  0  0  0  0  0  0
   20.0038   20.1059   20.7537 H   0  0  0  0  0  0  0  0  0  0  0  0
   21.5318   19.9087   22.2853 C   0  0  0  0  0  0  0  0  0  0  0  0
   22.0255   19.1249   22.8747 H   0  0  0  0  0  0  0  0  0  0  0  0
   22.3021   20.4300   21.7021 H   0  0  0  0  0  0  0  0  0  0  0  0
   21.0861   20.6318   22.9810 H   0  0  0  0  0  0  0  0  0  0  0  0
  1  2  1  0  0  0  0
  1  3  2  0  0  0  0
  1  4  1  0  0  0  0
  4  5  1  0  0  0  0
  4  6  1  0  0  0  0
  4  7  1  0  0  0  0
  7  8  1  0  0  0  0
  7  9  1  0  0  0  0
  7 10  1  0  0  0  0
 10 11  1  0  0  0  0
 10 12  1  0  0  0  0
 10 13  1  0  0  0  0
M  END
> <VConfSearch Rank>
329

> <Conf_Id>
0

> <Delta U+W>
0.000

> <U+W>
-58.332

> <U>
8.390

> <W>
-66.722

> <W(PB)>
-68.455

> <W(SA)>
1.733

> <Valence>
6.333

> <Coulomb>
1.215

> <VdW>
0.842

> <VdW6>
-3.344

> <VdW12>
4.186

> <Bond>
0.091

> <Angle>
2.713

> <Pdih>
3.529

> <Idih>
0.000

> <Tether>
0.000

$$$$
VeraChem MOL file


 13 12  0  0  0  0  0  0  0  0999 V2000     
   20.2774   19.3973   23.8934 C   0  0  0  0  0  0  0  0  0  0  0  0
   19.2882   19.7125   24.5238 O   0  5  0  0  0  0  0  0  0  0  0  0
   21.4084   19.6820   24.2329 O   0  0  0  0  0  0  0  0  0  0  0  0
   20.0882   18.6184   22.5961 C   0  0  0  0  0  0  0  0  0  0  0  0
   19.2034   17.9798   22.7072 H   0  0  0  0  0  0  0  0  0  0  0  0
   20.9519   17.9546   22.4673 H   0  0  0  0  0  0  0  0  0  0  0  0
   19.9316   19.5348   21.3585 C   0  0  0  0  0  0  0  0  0  0  0  0
   19.0701   20.2016   21.5029 H   0  0  0  0  0  0  0  0  0  0  0  0
   20.8189   20.1763   21.2630 H   0  0  0  0  0  0  0  0  0  0  0  0
   19.7423   18.7179   20.0646 C   0  0  0  0  0  0  0  0  0  0  0  0
   19.6331   19.3844   19.1991 H   0  0  0  0  0  0  0  0  0  0  0  0
   20.6057   18.0646   19.8827 H   0  0  0  0  0  0  0  0  0  0  0  0
   18.8435   18.0901   20.1245 H   0  0  0  0  0  0  0  0  0  0  0  0
  1  2  1  0  0  0  0
  1  3  2  0  0  0  0
  1  4  1  0  0  0  0
  4  5  1  0  0  0  0
  4  6  1  0  0  0  0
  4  7  1  0  0  0  0
  7  8  1  0  0  0  0
  7  9  1  0  0  0  0
  7 10  1  0  0  0  0
 10 11  1  0  0  0  0
 10 12  1  0  0  0  0
 10 13  1  0  0  0  0
M  END
> <VConfSearch Rank>
330

> <Conf_Id>
1

> <Delta U+W>
-1.339

> <U+W>
-59.672

> <U>
7.389

> <W>
-67.061

> <W(PB)>
-68.767

> <W(SA)>
1.707

> <Valence>
5.822

> <Coulomb>
1.255

> <VdW>
0.312

> <VdW6>
-3.061

> <VdW12>
3.372

> <Bond>
0.059

> <Angle>
2.241

> <Pdih>
3.522

> <Idih>
0.000

> <Tether>
0.000

$$$$
VeraChem MOL file


 13 12  0  0  0  0  0  0  0  0999 V2000     
   19.3795   18.3655   23.5109 C   0  0  0  0  0  0  0  0  0  0  0  0
   18.1697   18.2535   23.5016 O   0  5  0  0  0  0  0  0  0  0  0  0
   20.1222   17.5624   24.0393 O   0  0  0  0  0  0  0  0  0  0  0  0
   19.9937   19.5994   22.8544 C   0  0  0  0  0  0  0  0  0  0  0  0
   21.0222   19.7155   23.2178 H   0  0  0  0  0  0  0  0  0  0  0  0
   19.4323   20.4720   23.2089 H   0  0  0  0  0  0  0  0  0  0  0  0
   19.9753   19.5692   21.3046 C   0  0  0  0  0  0  0  0  0  0  0  0
   18.9463   19.4112   20.9521 H   0  0  0  0  0  0  0  0  0  0  0  0
   20.2931   20.5487   20.9217 H   0  0  0  0  0  0  0  0  0  0  0  0
   20.8983   18.4778   20.7243 C   0  0  0  0  0  0  0  0  0  0  0  0
   20.5820   17.4784   21.0516 H   0  0  0  0  0  0  0  0  0  0  0  0
   20.8771   18.4965   19.6269 H   0  0  0  0  0  0  0  0  0  0  0  0
   21.9367   18.6299   21.0466 H   0  0  0  0  0  0  0  0  0  0  0  0
  1  2  1  0  0  0  0
  1  3  2  0  0  0  0
  1  4  1  0  0  0  0
  4  5  1  0  0  0  0
  4  6  1  0  0  0  0
  4  7  1  0  0  0  0
  7  8  1  0  0  0  0
  7  9  1  0  0  0  0
  7 10  1  0  0  0  0
 10 11  1  0  0  0  0
 10 12  1  0  0  0  0
 10 13  1  0  0  0  0
M  END
> <VConfSearch Rank>
331

> <Conf_Id>
4

> <Delta U+W>
0.281

> <U+W>
-58.051

> <U>
9.781

> <W>
-67.832

> <W(PB)>
-69.535

> <W(SA)>
1.703

> <Valence>
6.123

> <Coulomb>
3.449

> <VdW>
0.209

> <VdW6>
-3.762

> <VdW12>
3.972

> <Bond>
0.078

> <Angle>
2.428

> <Pdih>
3.616

> <Idih>
0.002

> <Tether>
0.000

$$$$
VeraChem MOL file


 13 12  0  0  0  0  0  0  0  0999 V2000     
   20.7746   18.6798   20.3549 C   0  0  0  0  0  0  0  0  0  0  0  0
   20.5256   17.5418   20.0103 O   0  5  0  0  0  0  0  0  0  0  0  0
   20.7515   19.6292   19.5971 O   0  0  0  0  0  0  0  0  0  0  0  0
   21.1726   18.9275   21.8079 C   0  0  0  0  0  0  0  0  0  0  0  0
   22.0748   19.5506   21.7981 H   0  0  0  0  0  0  0  0  0  0  0  0
   21.4539   17.9700   22.2633 H   0  0  0  0  0  0  0  0  0  0  0  0
   20.0763   19.6209   22.6568 C   0  0  0  0  0  0  0  0  0  0  0  0
   20.4971   19.8945   23.6340 H   0  0  0  0  0  0  0  0  0  0  0  0
   19.7724   20.5583   22.1702 H   0  0  0  0  0  0  0  0  0  0  0  0
   18.8412   18.7224   22.8738 C   0  0  0  0  0  0  0  0  0  0  0  0
   19.1193   17.7884   23.3795 H   0  0  0  0  0  0  0  0  0  0  0  0
   18.0941   19.2348   23.4938 H   0  0  0  0  0  0  0  0  0  0  0  0
   18.3675   18.4648   21.9172 H   0  0  0  0  0  0  0  0  0  0  0  0
  1  2  1  0  0  0  0
  1  3  2  0  0  0  0
  1  4  1  0  0  0  0
  4  5  1  0  0  0  0
  4  6  1  0  0  0  0
  4  7  1  0  0  0  0
  7  8  1  0  0  0  0
  7  9  1  0  0  0  0
  7 10  1  0  0  0  0
 10 11  1  0  0  0  0
 10 12  1  0  0  0  0
 10 13  1  0  0  0  0
M  END
> <VConfSearch Rank>
332

> <Conf_Id>
36

> <Delta U+W>
0.272

> <U+W>
-58.060

> <U>
9.781

> <W>
-67.841

> <W(PB)>
-69.537

> <W(SA)>
1.696

> <Valence>
6.123

> <Coulomb>
3.449

> <VdW>
0.209

> <VdW6>
-3.762

> <VdW12>
3.972

> <Bond>
0.078

> <Angle>
2.428

> <Pdih>
3.616

> <Idih>
0.002

> <Tether>
0.000

$$$$
VeraChem MOL file


 13 12  0  0  0  0  0  0  0  0999 V2000     
   21.0355   17.5591   23.0223 C   0  0  0  0  0  0  0  0  0  0  0  0
   22.0136   17.3527   22.3309 O   0  5  0  0  0  0  0  0  0  0  0  0
   20.8477   17.0027   24.0853 O   0  0  0  0  0  0  0  0  0  0  0  0
   19.9744   18.5595   22.5598 C   0  0  0  0  0  0  0  0  0  0  0  0
   19.8779   19.3206   23.3432 H   0  0  0  0  0  0  0  0  0  0  0  0
   19.0181   18.0249   22.5132 H   0  0  0  0  0  0  0  0  0  0  0  0
   20.2565   19.2451   21.1973 C   0  0  0  0  0  0  0  0  0  0  0  0
   21.2165   19.7778   21.2452 H   0  0  0  0  0  0  0  0  0  0  0  0
   20.3558   18.4805   20.4141 H   0  0  0  0  0  0  0  0  0  0  0  0
   19.1365   20.2334   20.8144 C   0  0  0  0  0  0  0  0  0  0  0  0
   19.0380   21.0265   21.5672 H   0  0  0  0  0  0  0  0  0  0  0  0
   19.3535   20.7081   19.8485 H   0  0  0  0  0  0  0  0  0  0  0  0
   18.1704   19.7188   20.7296 H   0  0  0  0  0  0  0  0  0  0  0  0
  1  2  1  0  0  0  0
  1  3  2  0  0  0  0
  1  4  1  0  0  0  0
  4  5  1  0  0  0  0
  4  6  1  0  0  0  0
  4  7  1  0  0  0  0
  7  8  1  0  0  0  0
  7  9  1  0  0  0  0
  7 10  1  0  0  0  0
 10 11  1  0  0  0  0
 10 12  1  0  0  0  0
 10 13  1  0  0  0  0
M  END
> <VConfSearch Rank>
333

> <Conf_Id>
0

> <Delta U+W>
0.000

> <U+W>
-58.332

> <U>
8.390

> <W>
-66.722

> <W(PB)>
-68.455

> <W(SA)>
1.733

> <Valence>
6.333

> <Coulomb>
1.215

> <VdW>
0.842

> <VdW6>
-3.344

> <VdW12>
4.186

> <Bond>
0.091

> <Angle>
2.713

> <Pdih>
3.529

> <Idih>
0.000

> <Tether>
0.000

$$$$
VeraChem MOL file


 13 12  0  0  0  0  0  0  0  0999 V2000     
   21.5419   19.4554   23.2021 C   0  0  0  0  0  0  0  0  0  0  0  0
   22.3791   18.5862   23.3401 O   0  5  0  0  0  0  0  0  0  0  0  0
   21.2974   20.2920   24.0481 O   0  0  0  0  0  0  0  0  0  0  0  0
   20.7417   19.4866   21.9043 C   0  0  0  0  0  0  0  0  0  0  0  0
   21.3885   19.1251   21.0956 H   0  0  0  0  0  0  0  0  0  0  0  0
   20.4965   20.5317   21.6795 H   0  0  0  0  0  0  0  0  0  0  0  0
   19.4485   18.6387   21.9714 C   0  0  0  0  0  0  0  0  0  0  0  0
   19.7054   17.5964   22.2069 H   0  0  0  0  0  0  0  0  0  0  0  0
   18.8132   19.0034   22.7907 H   0  0  0  0  0  0  0  0  0  0  0  0
   18.6632   18.6909   20.6456 C   0  0  0  0  0  0  0  0  0  0  0  0
   17.7505   18.0843   20.7126 H   0  0  0  0  0  0  0  0  0  0  0  0
   18.3689   19.7206   20.4037 H   0  0  0  0  0  0  0  0  0  0  0  0
   19.2679   18.3028   19.8154 H   0  0  0  0  0  0  0  0  0  0  0  0
  1  2  1  0  0  0  0
  1  3  2  0  0  0  0
  1  4  1  0  0  0  0
  4  5  1  0  0  0  0
  4  6  1  0  0  0  0
  4  7  1  0  0  0  0
  7  8  1  0  0  0  0
  7  9  1  0  0  0  0
  7 10  1  0  0  0  0
 10 11  1  0  0  0  0
 10 12  1  0  0  0  0
 10 13  1  0  0  0  0
M  END
> <VConfSearch Rank>
334

> <Conf_Id>
1

> <Delta U+W>
-1.339

> <U+W>
-59.672

> <U>
7.389

> <W>
-67.061

> <W(PB)>
-68.767

> <W(SA)>
1.707

> <Valence>
5.822

> <Coulomb>
1.255

> <VdW>
0.312

> <VdW6>
-3.061

> <VdW12>
3.372

> <Bond>
0.059

> <Angle>
2.241

> <Pdih>
3.522

> <Idih>
0.000

> <Tether>
0.000

$$$$
VeraChem MOL file


 13 12  0  0  0  0  0  0  0  0999 V2000     
   20.0689   17.1767   22.0065 C   0  0  0  0  0  0  0  0  0  0  0  0
   18.9703   16.6785   22.1518 O   0  5  0  0  0  0  0  0  0  0  0  0
   20.9072   16.7388   21.2441 O   0  0  0  0  0  0  0  0  0  0  0  0
   20.4248   18.3957   22.8541 C   0  0  0  0  0  0  0  0  0  0  0  0
   21.5145   18.5215   22.8486 H   0  0  0  0  0  0  0  0  0  0  0  0
   20.1373   18.1702   23.8880 H   0  0  0  0  0  0  0  0  0  0  0  0
   19.7335   19.7073   22.4011 C   0  0  0  0  0  0  0  0  0  0  0  0
   18.6451   19.5577   22.3704 H   0  0  0  0  0  0  0  0  0  0  0  0
   19.9236   20.4906   23.1476 H   0  0  0  0  0  0  0  0  0  0  0  0
   20.2319   20.1921   21.0240 C   0  0  0  0  0  0  0  0  0  0  0  0
   20.0177   19.4503   20.2432 H   0  0  0  0  0  0  0  0  0  0  0  0
   19.7381   21.1313   20.7426 H   0  0  0  0  0  0  0  0  0  0  0  0
   21.3153   20.3692   21.0388 H   0  0  0  0  0  0  0  0  0  0  0  0
  1  2  1  0  0  0  0
  1  3  2  0  0  0  0
  1  4  1  0  0  0  0
  4  5  1  0  0  0  0
  4  6  1  0  0  0  0
  4  7  1  0  0  0  0
  7  8  1  0  0  0  0
  7  9  1  0  0  0  0
  7 10  1  0  0  0  0
 10 11  1  0  0  0  0
 10 12  1  0  0  0  0
 10 13  1  0  0  0  0
M  END
> <VConfSearch Rank>
335

> <Conf_Id>
4

> <Delta U+W>
0.281

> <U+W>
-58.051

> <U>
9.781

> <W>
-67.832

> <W(PB)>
-69.535

> <W(SA)>
1.703

> <Valence>
6.123

> <Coulomb>
3.449

> <VdW>
0.209

> <VdW6>
-3.762

> <VdW12>
3.972

> <Bond>
0.078

> <Angle>
2.428

> <Pdih>
3.616

> <Idih>
0.002

> <Tether>
0.000

$$$$
VeraChem MOL file


 13 12  0  0  0  0  0  0  0  0999 V2000     
   21.5722   19.5355   22.8747 C   0  0  0  0  0  0  0  0  0  0  0  0
   22.2850   20.1644   22.1181 O   0  5  0  0  0  0  0  0  0  0  0  0
   21.4094   19.8308   24.0419 O   0  0  0  0  0  0  0  0  0  0  0  0
   20.8715   18.2878   22.3428 C   0  0  0  0  0  0  0  0  0  0  0  0
   21.0448   17.4821   23.0660 H   0  0  0  0  0  0  0  0  0  0  0  0
   21.3573   17.9838   21.4074 H   0  0  0  0  0  0  0  0  0  0  0  0
   19.3472   18.4622   22.1205 C   0  0  0  0  0  0  0  0  0  0  0  0
   18.9036   17.4850   21.8856 H   0  0  0  0  0  0  0  0  0  0  0  0
   18.8768   18.8066   23.0522 H   0  0  0  0  0  0  0  0  0  0  0  0
   19.0260   19.4489   20.9789 C   0  0  0  0  0  0  0  0  0  0  0  0
   19.4687   19.1115   20.0325 H   0  0  0  0  0  0  0  0  0  0  0  0
   17.9411   19.5341   20.8351 H   0  0  0  0  0  0  0  0  0  0  0  0
   19.4174   20.4505   21.2012 H   0  0  0  0  0  0  0  0  0  0  0  0
  1  2  1  0  0  0  0
  1  3  2  0  0  0  0
  1  4  1  0  0  0  0
  4  5  1  0  0  0  0
  4  6  1  0  0  0  0
  4  7  1  0  0  0  0
  7  8  1  0  0  0  0
  7  9  1  0  0  0  0
  7 10  1  0  0  0  0
 10 11  1  0  0  0  0
 10 12  1  0  0  0  0
 10 13  1  0  0  0  0
M  END
> <VConfSearch Rank>
336

> <Conf_Id>
36

> <Delta U+W>
0.272

> <U+W>
-58.060

> <U>
9.781

> <W>
-67.841

> <W(PB)>
-69.537

> <W(SA)>
1.696

> <Valence>
6.123

> <Coulomb>
3.449

> <VdW>
0.209

> <VdW6>
-3.762

> <VdW12>
3.972

> <Bond>
0.078

> <Angle>
2.428

> <Pdih>
3.616

> <Idih>
0.002

> <Tether>
0.000

$$$$
VeraChem MOL file


 13 12  0  0  0  0  0  0  0  0999 V2000     
   18.7319   20.5508   22.5129 C   0  0  0  0  0  0  0  0  0  0  0  0
   18.6907   21.2539   21.5223 O   0  5  0  0  0  0  0  0  0  0  0  0
   18.1344   20.8149   23.5367 O   0  0  0  0  0  0  0  0  0  0  0  0
   19.5660   19.2683   22.5012 C   0  0  0  0  0  0  0  0  0  0  0  0
   18.8920   18.4369   22.7399 H   0  0  0  0  0  0  0  0  0  0  0  0
   20.2891   19.3401   23.3224 H   0  0  0  0  0  0  0  0  0  0  0  0
   20.3110   18.9722   21.1734 C   0  0  0  0  0  0  0  0  0  0  0  0
   19.5848   18.9035   20.3513 H   0  0  0  0  0  0  0  0  0  0  0  0
   20.9836   19.8079   20.9345 H   0  0  0  0  0  0  0  0  0  0  0  0
   21.1228   17.6637   21.2554 C   0  0  0  0  0  0  0  0  0  0  0  0
   20.4678   16.8073   21.4628 H   0  0  0  0  0  0  0  0  0  0  0  0
   21.6424   17.4713   20.3076 H   0  0  0  0  0  0  0  0  0  0  0  0
   21.8778   17.7189   22.0507 H   0  0  0  0  0  0  0  0  0  0  0  0
  1  2  1  0  0  0  0
  1  3  2  0  0  0  0
  1  4  1  0  0  0  0
  4  5  1  0  0  0  0
  4  6  1  0  0  0  0
  4  7  1  0  0  0  0
  7  8  1  0  0  0  0
  7  9  1  0  0  0  0
  7 10  1  0  0  0  0
 10 11  1  0  0  0  0
 10 12  1  0  0  0  0
 10 13  1  0  0  0  0
M  END
> <VConfSearch Rank>
337

> <Conf_Id>
0

> <Delta U+W>
0.000

> <U+W>
-58.332

> <U>
8.390

> <W>
-66.722

> <W(PB)>
-68.455

> <W(SA)>
1.733

> <Valence>
6.333

> <Coulomb>
1.215

> <VdW>
0.842

> <VdW6>
-3.344

> <VdW12>
4.186

> <Bond>
0.091

> <Angle>
2.713

> <Pdih>
3.529

> <Idih>
0.000

> <Tether>
0.000

$$$$
VeraChem MOL file


 13 12  0  0  0  0  0  0  0  0999 V2000     
   20.6665   20.9812   21.3503 C   0  0  0  0  0  0  0  0  0  0  0  0
   21.8500   21.1922   21.5239 O   0  5  0  0  0  0  0  0  0  0  0  0
   19.8227   21.8549   21.3457 O   0  0  0  0  0  0  0  0  0  0  0  0
   20.2132   19.5395   21.1458 C   0  0  0  0  0  0  0  0  0  0  0  0
   21.0143   19.0003   20.6258 H   0  0  0  0  0  0  0  0  0  0  0  0
   19.3425   19.5468   20.4788 H   0  0  0  0  0  0  0  0  0  0  0  0
   19.8622   18.8227   22.4720 C   0  0  0  0  0  0  0  0  0  0  0  0
   20.7382   18.8302   23.1356 H   0  0  0  0  0  0  0  0  0  0  0  0
   19.0660   19.3768   22.9885 H   0  0  0  0  0  0  0  0  0  0  0  0
   19.4083   17.3689   22.2313 C   0  0  0  0  0  0  0  0  0  0  0  0
   19.1640   16.8777   23.1822 H   0  0  0  0  0  0  0  0  0  0  0  0
   18.5149   17.3369   21.5939 H   0  0  0  0  0  0  0  0  0  0  0  0
   20.1999   16.7862   21.7422 H   0  0  0  0  0  0  0  0  0  0  0  0
  1  2  1  0  0  0  0
  1  3  2  0  0  0  0
  1  4  1  0  0  0  0
  4  5  1  0  0  0  0
  4  6  1  0  0  0  0
  4  7  1  0  0  0  0
  7  8  1  0  0  0  0
  7  9  1  0  0  0  0
  7 10  1  0  0  0  0
 10 11  1  0  0  0  0
 10 12  1  0  0  0  0
 10 13  1  0  0  0  0
M  END
> <VConfSearch Rank>
338

> <Conf_Id>
1

> <Delta U+W>
-1.339

> <U+W>
-59.672

> <U>
7.389

> <W>
-67.061

> <W(PB)>
-68.767

> <W(SA)>
1.707

> <Valence>
5.822

> <Coulomb>
1.255

> <VdW>
0.312

> <VdW6>
-3.061

> <VdW12>
3.372

> <Bond>
0.059

> <Angle>
2.241

> <Pdih>
3.522

> <Idih>
0.000

> <Tether>
0.000

$$$$
VeraChem MOL file


 13 12  0  0  0  0  0  0  0  0999 V2000     
   19.1302   18.8215   20.5140 C   0  0  0  0  0  0  0  0  0  0  0  0
   18.0230   18.3431   20.6597 O   0  5  0  0  0  0  0  0  0  0  0  0
   19.3638   19.7555   19.7731 O   0  0  0  0  0  0  0  0  0  0  0  0
   20.2933   18.1910   21.2758 C   0  0  0  0  0  0  0  0  0  0  0  0
   21.2332   18.5079   20.8074 H   0  0  0  0  0  0  0  0  0  0  0  0
   20.2225   17.1051   21.1406 H   0  0  0  0  0  0  0  0  0  0  0  0
   20.3135   18.5216   22.7903 C   0  0  0  0  0  0  0  0  0  0  0  0
   19.3523   18.2382   23.2414 H   0  0  0  0  0  0  0  0  0  0  0  0
   21.0845   17.9123   23.2814 H   0  0  0  0  0  0  0  0  0  0  0  0
   20.5987   20.0126   23.0653 C   0  0  0  0  0  0  0  0  0  0  0  0
   19.8211   20.6509   22.6252 H   0  0  0  0  0  0  0  0  0  0  0  0
   20.6257   20.2085   24.1451 H   0  0  0  0  0  0  0  0  0  0  0  0
   21.5663   20.3117   22.6415 H   0  0  0  0  0  0  0  0  0  0  0  0
  1  2  1  0  0  0  0
  1  3  2  0  0  0  0
  1  4  1  0  0  0  0
  4  5  1  0  0  0  0
  4  6  1  0  0  0  0
  4  7  1  0  0  0  0
  7  8  1  0  0  0  0
  7  9  1  0  0  0  0
  7 10  1  0  0  0  0
 10 11  1  0  0  0  0
 10 12  1  0  0  0  0
 10 13  1  0  0  0  0
M  END
> <VConfSearch Rank>
339

> <Conf_Id>
4

> <Delta U+W>
0.281

> <U+W>
-58.051

> <U>
9.781

> <W>
-67.832

> <W(PB)>
-69.535

> <W(SA)>
1.703

> <Valence>
6.123

> <Coulomb>
3.449

> <VdW>
0.209

> <VdW6>
-3.762

> <VdW12>
3.972

> <Bond>
0.078

> <Angle>
2.428

> <Pdih>
3.616

> <Idih>
0.002

> <Tether>
0.000

$$$$
VeraChem MOL file


 13 12  0  0  0  0  0  0  0  0999 V2000     
   21.8545   19.2259   21.6428 C   0  0  0  0  0  0  0  0  0  0  0  0
   22.4910   19.1868   22.6768 O   0  5  0  0  0  0  0  0  0  0  0  0
   22.2576   18.7712   20.5907 O   0  0  0  0  0  0  0  0  0  0  0  0
   20.4916   19.9137   21.6551 C   0  0  0  0  0  0  0  0  0  0  0  0
   20.4630   20.5981   20.7988 H   0  0  0  0  0  0  0  0  0  0  0  0
   20.4185   20.5327   22.5578 H   0  0  0  0  0  0  0  0  0  0  0  0
   19.2883   18.9394   21.5769 C   0  0  0  0  0  0  0  0  0  0  0  0
   18.3649   19.5183   21.4391 H   0  0  0  0  0  0  0  0  0  0  0  0
   19.3929   18.2963   20.6918 H   0  0  0  0  0  0  0  0  0  0  0  0
   19.1520   18.0669   22.8418 C   0  0  0  0  0  0  0  0  0  0  0  0
   19.0240   18.6901   23.7365 H   0  0  0  0  0  0  0  0  0  0  0  0
   18.2807   17.4038   22.7623 H   0  0  0  0  0  0  0  0  0  0  0  0
   20.0419   17.4400   22.9866 H   0  0  0  0  0  0  0  0  0  0  0  0
  1  2  1  0  0  0  0
  1  3  2  0  0  0  0
  1  4  1  0  0  0  0
  4  5  1  0  0  0  0
  4  6  1  0  0  0  0
  4  7  1  0  0  0  0
  7  8  1  0  0  0  0
  7  9  1  0  0  0  0
  7 10  1  0  0  0  0
 10 11  1  0  0  0  0
 10 12  1  0  0  0  0
 10 13  1  0  0  0  0
M  END
> <VConfSearch Rank>
340

> <Conf_Id>
36

> <Delta U+W>
0.272

> <U+W>
-58.060

> <U>
9.781

> <W>
-67.841

> <W(PB)>
-69.537

> <W(SA)>
1.696

> <Valence>
6.123

> <Coulomb>
3.449

> <VdW>
0.209

> <VdW6>
-3.762

> <VdW12>
3.972

> <Bond>
0.078

> <Angle>
2.428

> <Pdih>
3.616

> <Idih>
0.002

> <Tether>
0.000

$$$$
VeraChem MOL file


 13 12  0  0  0  0  0  0  0  0999 V2000     
   19.5373   17.6475   20.2459 C   0  0  0  0  0  0  0  0  0  0  0  0
   20.6278   17.1487   20.0478 O   0  5  0  0  0  0  0  0  0  0  0  0
   18.5445   17.3372   19.6190 O   0  0  0  0  0  0  0  0  0  0  0  0
   19.3753   18.7178   21.3270 C   0  0  0  0  0  0  0  0  0  0  0  0
   18.6125   18.3613   22.0294 H   0  0  0  0  0  0  0  0  0  0  0  0
   18.9704   19.6143   20.8425 H   0  0  0  0  0  0  0  0  0  0  0  0
   20.6693   19.0815   22.1011 C   0  0  0  0  0  0  0  0  0  0  0  0
   21.0750   18.1812   22.5834 H   0  0  0  0  0  0  0  0  0  0  0  0
   21.4333   19.4357   21.3950 H   0  0  0  0  0  0  0  0  0  0  0  0
   20.4097   20.1652   23.1669 C   0  0  0  0  0  0  0  0  0  0  0  0
   19.6712   19.8229   23.9037 H   0  0  0  0  0  0  0  0  0  0  0  0
   21.3358   20.4091   23.7036 H   0  0  0  0  0  0  0  0  0  0  0  0
   20.0323   21.0874   22.7057 H   0  0  0  0  0  0  0  0  0  0  0  0
  1  2  1  0  0  0  0
  1  3  2  0  0  0  0
  1  4  1  0  0  0  0
  4  5  1  0  0  0  0
  4  6  1  0  0  0  0
  4  7  1  0  0  0  0
  7  8  1  0  0  0  0
  7  9  1  0  0  0  0
  7 10  1  0  0  0  0
 10 11  1  0  0  0  0
 10 12  1  0  0  0  0
 10 13  1  0  0  0  0
M  END
> <VConfSearch Rank>
341

> <Conf_Id>
0

> <Delta U+W>
0.000

> <U+W>
-58.332

> <U>
8.390

> <W>
-66.722

> <W(PB)>
-68.455

> <W(SA)>
1.733

> <Valence>
6.333

> <Coulomb>
1.215

> <VdW>
0.842

> <VdW6>
-3.344

> <VdW12>
4.186

> <Bond>
0.091

> <Angle>
2.713

> <Pdih>
3.529

> <Idih>
0.000

> <Tether>
0.000

$$$$
VeraChem MOL file


 13 12  0  0  0  0  0  0  0  0999 V2000     
   18.8977   17.2486   22.0788 C   0  0  0  0  0  0  0  0  0  0  0  0
   19.0748   16.6552   23.1237 O   0  5  0  0  0  0  0  0  0  0  0  0
   18.5154   16.7116   21.0586 O   0  0  0  0  0  0  0  0  0  0  0  0
   19.1890   18.7450   22.0407 C   0  0  0  0  0  0  0  0  0  0  0  0
   18.9601   19.1626   23.0288 H   0  0  0  0  0  0  0  0  0  0  0  0
   18.4988   19.2091   21.3258 H   0  0  0  0  0  0  0  0  0  0  0  0
   20.6528   19.0658   21.6530 C   0  0  0  0  0  0  0  0  0  0  0  0
   21.3350   18.5879   22.3699 H   0  0  0  0  0  0  0  0  0  0  0  0
   20.8736   18.6346   20.6665 H   0  0  0  0  0  0  0  0  0  0  0  0
   20.9148   20.5850   21.6236 C   0  0  0  0  0  0  0  0  0  0  0  0
   21.9568   20.7924   21.3470 H   0  0  0  0  0  0  0  0  0  0  0  0
   20.2644   21.0817   20.8916 H   0  0  0  0  0  0  0  0  0  0  0  0
   20.7295   21.0346   22.6080 H   0  0  0  0  0  0  0  0  0  0  0  0
  1  2  1  0  0  0  0
  1  3  2  0  0  0  0
  1  4  1  0  0  0  0
  4  5  1  0  0  0  0
  4  6  1  0  0  0  0
  4  7  1  0  0  0  0
  7  8  1  0  0  0  0
  7  9  1  0  0  0  0
  7 10  1  0  0  0  0
 10 11  1  0  0  0  0
 10 12  1  0  0  0  0
 10 13  1  0  0  0  0
M  END
> <VConfSearch Rank>
342

> <Conf_Id>
1

> <Delta U+W>
-1.339

> <U+W>
-59.672

> <U>
7.389

> <W>
-67.061

> <W(PB)>
-68.767

> <W(SA)>
1.707

> <Valence>
5.822

> <Coulomb>
1.255

> <VdW>
0.312

> <VdW6>
-3.061

> <VdW12>
3.372

> <Bond>
0.059

> <Angle>
2.241

> <Pdih>
3.522

> <Idih>
0.000

> <Tether>
0.000

$$$$
VeraChem MOL file


 13 12  0  0  0  0  0  0  0  0999 V2000     
   18.5065   18.3277   22.4224 C   0  0  0  0  0  0  0  0  0  0  0  0
   18.2724   18.2156   23.6092 O   0  5  0  0  0  0  0  0  0  0  0  0
   17.6889   18.7170   21.6125 O   0  0  0  0  0  0  0  0  0  0  0  0
   19.8903   17.9235   21.9198 C   0  0  0  0  0  0  0  0  0  0  0  0
   19.8405   17.7759   20.8339 H   0  0  0  0  0  0  0  0  0  0  0  0
   20.1265   16.9480   22.3614 H   0  0  0  0  0  0  0  0  0  0  0  0
   21.0129   18.9335   22.2704 C   0  0  0  0  0  0  0  0  0  0  0  0
   21.0269   19.1056   23.3558 H   0  0  0  0  0  0  0  0  0  0  0  0
   21.9857   18.4959   22.0076 H   0  0  0  0  0  0  0  0  0  0  0  0
   20.8491   20.2780   21.5318 C   0  0  0  0  0  0  0  0  0  0  0  0
   19.9044   20.7663   21.8057 H   0  0  0  0  0  0  0  0  0  0  0  0
   21.6693   20.9617   21.7866 H   0  0  0  0  0  0  0  0  0  0  0  0
   20.8548   20.1313   20.4438 H   0  0  0  0  0  0  0  0  0  0  0  0
  1  2  1  0  0  0  0
  1  3  2  0  0  0  0
  1  4  1  0  0  0  0
  4  5  1  0  0  0  0
  4  6  1  0  0  0  0
  4  7  1  0  0  0  0
  7  8  1  0  0  0  0
  7  9  1  0  0  0  0
  7 10  1  0  0  0  0
 10 11  1  0  0  0  0
 10 12  1  0  0  0  0
 10 13  1  0  0  0  0
M  END
> <VConfSearch Rank>
343

> <Conf_Id>
4

> <Delta U+W>
0.281

> <U+W>
-58.051

> <U>
9.781

> <W>
-67.832

> <W(PB)>
-69.535

> <W(SA)>
1.703

> <Valence>
6.123

> <Coulomb>
3.449

> <VdW>
0.209

> <VdW6>
-3.762

> <VdW12>
3.972

> <Bond>
0.078

> <Angle>
2.428

> <Pdih>
3.616

> <Idih>
0.002

> <Tether>
0.000

$$$$
VeraChem MOL file


 13 12  0  0  0  0  0  0  0  0999 V2000     
   20.4908   18.5072   20.3059 C   0  0  0  0  0  0  0  0  0  0  0  0
   19.4596   18.4237   19.6690 O   0  5  0  0  0  0  0  0  0  0  0  0
   21.5260   18.9496   19.8491 O   0  0  0  0  0  0  0  0  0  0  0  0
   20.4984   17.9970   21.7448 C   0  0  0  0  0  0  0  0  0  0  0  0
   21.3813   17.3570   21.8602 H   0  0  0  0  0  0  0  0  0  0  0  0
   19.6209   17.3562   21.8951 H   0  0  0  0  0  0  0  0  0  0  0  0
   20.5307   19.1179   22.8153 C   0  0  0  0  0  0  0  0  0  0  0  0
   20.6864   18.6663   23.8046 H   0  0  0  0  0  0  0  0  0  0  0  0
   21.3898   19.7780   22.6308 H   0  0  0  0  0  0  0  0  0  0  0  0
   19.2310   19.9487   22.8396 C   0  0  0  0  0  0  0  0  0  0  0  0
   18.3613   19.3108   23.0449 H   0  0  0  0  0  0  0  0  0  0  0  0
   19.2789   20.7191   23.6201 H   0  0  0  0  0  0  0  0  0  0  0  0
   19.0662   20.4518   21.8775 H   0  0  0  0  0  0  0  0  0  0  0  0
  1  2  1  0  0  0  0
  1  3  2  0  0  0  0
  1  4  1  0  0  0  0
  4  5  1  0  0  0  0
  4  6  1  0  0  0  0
  4  7  1  0  0  0  0
  7  8  1  0  0  0  0
  7  9  1  0  0  0  0
  7 10  1  0  0  0  0
 10 11  1  0  0  0  0
 10 12  1  0  0  0  0
 10 13  1  0  0  0  0
M  END
> <VConfSearch Rank>
344

> <Conf_Id>
36

> <Delta U+W>
0.272

> <U+W>
-58.060

> <U>
9.781

> <W>
-67.841

> <W(PB)>
-69.537

> <W(SA)>
1.696

> <Valence>
6.123

> <Coulomb>
3.449

> <VdW>
0.209

> <VdW6>
-3.762

> <VdW12>
3.972

> <Bond>
0.078

> <Angle>
2.428

> <Pdih>
3.616

> <Idih>
0.002

> <Tether>
0.000

$$$$
VeraChem MOL file


 13 12  0  0  0  0  0  0  0  0999 V2000     
   21.1824   18.0124   23.3128 C   0  0  0  0  0  0  0  0  0  0  0  0
   21.5225   17.0206   22.6980 O   0  5  0  0  0  0  0  0  0  0  0  0
   21.5087   18.2214   24.4637 O   0  0  0  0  0  0  0  0  0  0  0  0
   20.3026   19.0639   22.6337 C   0  0  0  0  0  0  0  0  0  0  0  0
   20.8391   20.0191   22.6795 H   0  0  0  0  0  0  0  0  0  0  0  0
   19.3970   19.1757   23.2417 H   0  0  0  0  0  0  0  0  0  0  0  0
   19.9110   18.7545   21.1650 C   0  0  0  0  0  0  0  0  0  0  0  0
   20.8200   18.6399   20.5581 H   0  0  0  0  0  0  0  0  0  0  0  0
   19.3763   17.7954   21.1209 H   0  0  0  0  0  0  0  0  0  0  0  0
   19.0268   19.8663   20.5651 C   0  0  0  0  0  0  0  0  0  0  0  0
   19.5515   20.8308   20.5692 H   0  0  0  0  0  0  0  0  0  0  0  0
   18.7602   19.6300   19.5267 H   0  0  0  0  0  0  0  0  0  0  0  0
   18.0962   19.9795   21.1366 H   0  0  0  0  0  0  0  0  0  0  0  0
  1  2  1  0  0  0  0
  1  3  2  0  0  0  0
  1  4  1  0  0  0  0
  4  5  1  0  0  0  0
  4  6  1  0  0  0  0
  4  7  1  0  0  0  0
  7  8  1  0  0  0  0
  7  9  1  0  0  0  0
  7 10  1  0  0  0  0
 10 11  1  0  0  0  0
 10 12  1  0  0  0  0
 10 13  1  0  0  0  0
M  END
> <VConfSearch Rank>
345

> <Conf_Id>
0

> <Delta U+W>
0.000

> <U+W>
-58.332

> <U>
8.390

> <W>
-66.722

> <W(PB)>
-68.455

> <W(SA)>
1.733

> <Valence>
6.333

> <Coulomb>
1.215

> <VdW>
0.842

> <VdW6>
-3.344

> <VdW12>
4.186

> <Bond>
0.091

> <Angle>
2.713

> <Pdih>
3.529

> <Idih>
0.000

> <Tether>
0.000

$$$$
VeraChem MOL file


 13 12  0  0  0  0  0  0  0  0999 V2000     
   17.9693   18.7205   21.3051 C   0  0  0  0  0  0  0  0  0  0  0  0
   17.5422   19.3989   20.3925 O   0  5  0  0  0  0  0  0  0  0  0  0
   17.2642   18.2315   22.1648 O   0  0  0  0  0  0  0  0  0  0  0  0
   19.4739   18.4858   21.3864 C   0  0  0  0  0  0  0  0  0  0  0  0
   19.8708   18.4576   20.3643 H   0  0  0  0  0  0  0  0  0  0  0  0
   19.6416   17.4949   21.8258 H   0  0  0  0  0  0  0  0  0  0  0  0
   20.2102   19.5669   22.2140 C   0  0  0  0  0  0  0  0  0  0  0  0
   20.0271   20.5557   21.7707 H   0  0  0  0  0  0  0  0  0  0  0  0
   19.7979   19.5927   23.2325 H   0  0  0  0  0  0  0  0  0  0  0  0
   21.7277   19.3014   22.2770 C   0  0  0  0  0  0  0  0  0  0  0  0
   22.2319   20.0775   22.8674 H   0  0  0  0  0  0  0  0  0  0  0  0
   21.9374   18.3302   22.7443 H   0  0  0  0  0  0  0  0  0  0  0  0
   22.1683   19.3006   21.2713 H   0  0  0  0  0  0  0  0  0  0  0  0
  1  2  1  0  0  0  0
  1  3  2  0  0  0  0
  1  4  1  0  0  0  0
  4  5  1  0  0  0  0
  4  6  1  0  0  0  0
  4  7  1  0  0  0  0
  7  8  1  0  0  0  0
  7  9  1  0  0  0  0
  7 10  1  0  0  0  0
 10 11  1  0  0  0  0
 10 12  1  0  0  0  0
 10 13  1  0  0  0  0
M  END
> <VConfSearch Rank>
346

> <Conf_Id>
1

> <Delta U+W>
-1.339

> <U+W>
-59.672

> <U>
7.389

> <W>
-67.061

> <W(PB)>
-68.767

> <W(SA)>
1.707

> <Valence>
5.822

> <Coulomb>
1.255

> <VdW>
0.312

> <VdW6>
-3.061

> <VdW12>
3.372

> <Bond>
0.059

> <Angle>
2.241

> <Pdih>
3.522

> <Idih>
0.000

> <Tether>
0.000

$$$$
VeraChem MOL file


 13 12  0  0  0  0  0  0  0  0999 V2000     
   18.7428   19.0856   20.8631 C   0  0  0  0  0  0  0  0  0  0  0  0
   18.7726   20.0145   20.0806 O   0  5  0  0  0  0  0  0  0  0  0  0
   18.3648   17.9703   20.5644 O   0  0  0  0  0  0  0  0  0  0  0  0
   19.1694   19.3452   22.3058 C   0  0  0  0  0  0  0  0  0  0  0  0
   18.7905   18.5313   22.9362 H   0  0  0  0  0  0  0  0  0  0  0  0
   18.6660   20.2618   22.6358 H   0  0  0  0  0  0  0  0  0  0  0  0
   20.7000   19.5001   22.4969 C   0  0  0  0  0  0  0  0  0  0  0  0
   21.0756   20.2896   21.8309 H   0  0  0  0  0  0  0  0  0  0  0  0
   20.9027   19.8313   23.5246 H   0  0  0  0  0  0  0  0  0  0  0  0
   21.4642   18.1867   22.2308 C   0  0  0  0  0  0  0  0  0  0  0  0
   21.3197   17.8487   21.1960 H   0  0  0  0  0  0  0  0  0  0  0  0
   22.5408   18.3257   22.3938 H   0  0  0  0  0  0  0  0  0  0  0  0
   21.1192   17.3891   22.9019 H   0  0  0  0  0  0  0  0  0  0  0  0
  1  2  1  0  0  0  0
  1  3  2  0  0  0  0
  1  4  1  0  0  0  0
  4  5  1  0  0  0  0
  4  6  1  0  0  0  0
  4  7  1  0  0  0  0
  7  8  1  0  0  0  0
  7  9  1  0  0  0  0
  7 10  1  0  0  0  0
 10 11  1  0  0  0  0
 10 12  1  0  0  0  0
 10 13  1  0  0  0  0
M  END
> <VConfSearch Rank>
347

> <Conf_Id>
4

> <Delta U+W>
0.281

> <U+W>
-58.051

> <U>
9.781

> <W>
-67.832

> <W(PB)>
-69.535

> <W(SA)>
1.703

> <Valence>
6.123

> <Coulomb>
3.449

> <VdW>
0.209

> <VdW6>
-3.762

> <VdW12>
3.972

> <Bond>
0.078

> <Angle>
2.428

> <Pdih>
3.616

> <Idih>
0.002

> <Tether>
0.000

$$$$
VeraChem MOL file


 13 12  0  0  0  0  0  0  0  0999 V2000     
   21.8732   18.7562   22.2822 C   0  0  0  0  0  0  0  0  0  0  0  0
   22.2815   19.6530   22.9928 O   0  5  0  0  0  0  0  0  0  0  0  0
   22.2664   17.6092   22.3592 O   0  0  0  0  0  0  0  0  0  0  0  0
   20.8380   19.0924   21.2117 C   0  0  0  0  0  0  0  0  0  0  0  0
   21.1813   18.6430   20.2723 H   0  0  0  0  0  0  0  0  0  0  0  0
   20.8305   20.1787   21.0590 H   0  0  0  0  0  0  0  0  0  0  0  0
   19.4074   18.5883   21.5318 C   0  0  0  0  0  0  0  0  0  0  0  0
   18.7678   18.7376   20.6512 H   0  0  0  0  0  0  0  0  0  0  0  0
   19.4330   17.5065   21.7237 H   0  0  0  0  0  0  0  0  0  0  0  0
   18.7810   19.3168   22.7389 C   0  0  0  0  0  0  0  0  0  0  0  0
   18.7254   20.3984   22.5588 H   0  0  0  0  0  0  0  0  0  0  0  0
   17.7631   18.9508   22.9259 H   0  0  0  0  0  0  0  0  0  0  0  0
   19.3723   19.1522   23.6495 H   0  0  0  0  0  0  0  0  0  0  0  0
  1  2  1  0  0  0  0
  1  3  2  0  0  0  0
  1  4  1  0  0  0  0
  4  5  1  0  0  0  0
  4  6  1  0  0  0  0
  4  7  1  0  0  0  0
  7  8  1  0  0  0  0
  7  9  1  0  0  0  0
  7 10  1  0  0  0  0
 10 11  1  0  0  0  0
 10 12  1  0  0  0  0
 10 13  1  0  0  0  0
M  END
> <VConfSearch Rank>
348

> <Conf_Id>
36

> <Delta U+W>
0.272

> <U+W>
-58.060

> <U>
9.781

> <W>
-67.841

> <W(PB)>
-69.537

> <W(SA)>
1.696

> <Valence>
6.123

> <Coulomb>
3.449

> <VdW>
0.209

> <VdW6>
-3.762

> <VdW12>
3.972

> <Bond>
0.078

> <Angle>
2.428

> <Pdih>
3.616

> <Idih>
0.002

> <Tether>
0.000

$$$$
VeraChem MOL file


 13 12  0  0  0  0  0  0  0  0999 V2000     
   19.3135   17.1336   22.5683 C   0  0  0  0  0  0  0  0  0  0  0  0
   18.8689   16.6484   21.5464 O   0  5  0  0  0  0  0  0  0  0  0  0
   19.2779   16.5647   23.6406 O   0  0  0  0  0  0  0  0  0  0  0  0
   19.9530   18.5231   22.5350 C   0  0  0  0  0  0  0  0  0  0  0  0
   20.9770   18.4217   22.9139 H   0  0  0  0  0  0  0  0  0  0  0  0
   19.4081   19.1518   23.2492 H   0  0  0  0  0  0  0  0  0  0  0  0
   19.9760   19.2109   21.1449 C   0  0  0  0  0  0  0  0  0  0  0  0
   20.5200   18.5779   20.4300 H   0  0  0  0  0  0  0  0  0  0  0  0
   18.9492   19.3089   20.7657 H   0  0  0  0  0  0  0  0  0  0  0  0
   20.6373   20.6025   21.2090 C   0  0  0  0  0  0  0  0  0  0  0  0
   21.6763   20.5282   21.5562 H   0  0  0  0  0  0  0  0  0  0  0  0
   20.6443   21.0731   20.2171 H   0  0  0  0  0  0  0  0  0  0  0  0
   20.0929   21.2650   21.8946 H   0  0  0  0  0  0  0  0  0  0  0  0
  1  2  1  0  0  0  0
  1  3  2  0  0  0  0
  1  4  1  0  0  0  0
  4  5  1  0  0  0  0
  4  6  1  0  0  0  0
  4  7  1  0  0  0  0
  7  8  1  0  0  0  0
  7  9  1  0  0  0  0
  7 10  1  0  0  0  0
 10 11  1  0  0  0  0
 10 12  1  0  0  0  0
 10 13  1  0  0  0  0
M  END
> <VConfSearch Rank>
349

> <Conf_Id>
0

> <Delta U+W>
0.000

> <U+W>
-58.332

> <U>
8.390

> <W>
-66.722

> <W(PB)>
-68.455

> <W(SA)>
1.733

> <Valence>
6.333

> <Coulomb>
1.215

> <VdW>
0.842

> <VdW6>
-3.344

> <VdW12>
4.186

> <Bond>
0.091

> <Angle>
2.713

> <Pdih>
3.529

> <Idih>
0.000

> <Tether>
0.000

$$$$
VeraChem MOL file


 13 12  0  0  0  0  0  0  0  0999 V2000     
   20.1628   20.6041   23.2400 C   0  0  0  0  0  0  0  0  0  0  0  0
   19.2181   20.7560   23.9882 O   0  5  0  0  0  0  0  0  0  0  0  0
   20.9469   21.4888   22.9610 O   0  0  0  0  0  0  0  0  0  0  0  0
   20.3645   19.2339   22.6018 C   0  0  0  0  0  0  0  0  0  0  0  0
   20.0154   18.4726   23.3101 H   0  0  0  0  0  0  0  0  0  0  0  0
   21.4411   19.0770   22.4631 H   0  0  0  0  0  0  0  0  0  0  0  0
   19.6256   19.0823   21.2501 C   0  0  0  0  0  0  0  0  0  0  0  0
   18.5500   19.2512   21.3994 H   0  0  0  0  0  0  0  0  0  0  0  0
   19.9760   19.8556   20.5522 H   0  0  0  0  0  0  0  0  0  0  0  0
   19.8491   17.6878   20.6316 C   0  0  0  0  0  0  0  0  0  0  0  0
   19.3181   17.5995   19.6748 H   0  0  0  0  0  0  0  0  0  0  0  0
   20.9160   17.5072   20.4451 H   0  0  0  0  0  0  0  0  0  0  0  0
   19.4790   16.8982   21.2988 H   0  0  0  0  0  0  0  0  0  0  0  0
  1  2  1  0  0  0  0
  1  3  2  0  0  0  0
  1  4  1  0  0  0  0
  4  5  1  0  0  0  0
  4  6  1  0  0  0  0
  4  7  1  0  0  0  0
  7  8  1  0  0  0  0
  7  9  1  0  0  0  0
  7 10  1  0  0  0  0
 10 11  1  0  0  0  0
 10 12  1  0  0  0  0
 10 13  1  0  0  0  0
M  END
> <VConfSearch Rank>
350

> <Conf_Id>
1

> <Delta U+W>
-1.339

> <U+W>
-59.672

> <U>
7.389

> <W>
-67.061

> <W(PB)>
-68.767

> <W(SA)>
1.707

> <Valence>
5.822

> <Coulomb>
1.255

> <VdW>
0.312

> <VdW6>
-3.061

> <VdW12>
3.372

> <Bond>
0.059

> <Angle>
2.241

> <Pdih>
3.522

> <Idih>
0.000

> <Tether>
0.000

$$$$
VeraChem MOL file


 13 12  0  0  0  0  0  0  0  0999 V2000     
   19.6780   17.6257   23.0969 C   0  0  0  0  0  0  0  0  0  0  0  0
   19.6548   17.8926   24.2819 O   0  5  0  0  0  0  0  0  0  0  0  0
   18.8581   16.9113   22.5553 O   0  0  0  0  0  0  0  0  0  0  0  0
   20.8187   18.1900   22.2536 C   0  0  0  0  0  0  0  0  0  0  0  0
   20.8821   17.6175   21.3201 H   0  0  0  0  0  0  0  0  0  0  0  0
   21.7512   18.0075   22.8009 H   0  0  0  0  0  0  0  0  0  0  0  0
   20.6904   19.7036   21.9440 C   0  0  0  0  0  0  0  0  0  0  0  0
   20.5860   20.2636   22.8839 H   0  0  0  0  0  0  0  0  0  0  0  0
   21.6173   20.0536   21.4693 H   0  0  0  0  0  0  0  0  0  0  0  0
   19.4991   20.0173   21.0154 C   0  0  0  0  0  0  0  0  0  0  0  0
   18.5488   19.7202   21.4785 H   0  0  0  0  0  0  0  0  0  0  0  0
   19.4488   21.0927   20.8006 H   0  0  0  0  0  0  0  0  0  0  0  0
   19.5950   19.4844   20.0603 H   0  0  0  0  0  0  0  0  0  0  0  0
  1  2  1  0  0  0  0
  1  3  2  0  0  0  0
  1  4  1  0  0  0  0
  4  5  1  0  0  0  0
  4  6  1  0  0  0  0
  4  7  1  0  0  0  0
  7  8  1  0  0  0  0
  7  9  1  0  0  0  0
  7 10  1  0  0  0  0
 10 11  1  0  0  0  0
 10 12  1  0  0  0  0
 10 13  1  0  0  0  0
M  END
> <VConfSearch Rank>
351

> <Conf_Id>
4

> <Delta U+W>
0.281

> <U+W>
-58.051

> <U>
9.781

> <W>
-67.832

> <W(PB)>
-69.535

> <W(SA)>
1.703

> <Valence>
6.123

> <Coulomb>
3.449

> <VdW>
0.209

> <VdW6>
-3.762

> <VdW12>
3.972

> <Bond>
0.078

> <Angle>
2.428

> <Pdih>
3.616

> <Idih>
0.002

> <Tether>
0.000

$$$$
VeraChem MOL file


 13 12  0  0  0  0  0  0  0  0999 V2000     
   19.1176   19.2971   23.4471 C   0  0  0  0  0  0  0  0  0  0  0  0
   18.2733   20.1288   23.1798 O   0  5  0  0  0  0  0  0  0  0  0  0
   18.9164   18.3508   24.1819 O   0  0  0  0  0  0  0  0  0  0  0  0
   20.5160   19.4675   22.8586 C   0  0  0  0  0  0  0  0  0  0  0  0
   21.2334   19.3403   23.6781 H   0  0  0  0  0  0  0  0  0  0  0  0
   20.6234   20.4988   22.5007 H   0  0  0  0  0  0  0  0  0  0  0  0
   20.8513   18.4698   21.7204 C   0  0  0  0  0  0  0  0  0  0  0  0
   21.9153   18.5619   21.4629 H   0  0  0  0  0  0  0  0  0  0  0  0
   20.7006   17.4411   22.0768 H   0  0  0  0  0  0  0  0  0  0  0  0
   20.0038   18.7119   20.4543 C   0  0  0  0  0  0  0  0  0  0  0  0
   20.1567   19.7282   20.0682 H   0  0  0  0  0  0  0  0  0  0  0  0
   20.2794   18.0029   19.6628 H   0  0  0  0  0  0  0  0  0  0  0  0
   18.9337   18.5840   20.6653 H   0  0  0  0  0  0  0  0  0  0  0  0
  1  2  1  0  0  0  0
  1  3  2  0  0  0  0
  1  4  1  0  0  0  0
  4  5  1  0  0  0  0
  4  6  1  0  0  0  0
  4  7  1  0  0  0  0
  7  8  1  0  0  0  0
  7  9  1  0  0  0  0
  7 10  1  0  0  0  0
 10 11  1  0  0  0  0
 10 12  1  0  0  0  0
 10 13  1  0  0  0  0
M  END
> <VConfSearch Rank>
352

> <Conf_Id>
36

> <Delta U+W>
0.272

> <U+W>
-58.060

> <U>
9.781

> <W>
-67.841

> <W(PB)>
-69.537

> <W(SA)>
1.696

> <Valence>
6.123

> <Coulomb>
3.449

> <VdW>
0.209

> <VdW6>
-3.762

> <VdW12>
3.972

> <Bond>
0.078

> <Angle>
2.428

> <Pdih>
3.616

> <Idih>
0.002

> <Tether>
0.000

$$$$
VeraChem MOL file


 13 12  0  0  0  0  0  0  0  0999 V2000     
   18.2159   17.9575   21.3793 C   0  0  0  0  0  0  0  0  0  0  0  0
   18.6344   17.1244   20.5994 O   0  5  0  0  0  0  0  0  0  0  0  0
   17.0487   18.0298   21.7065 O   0  0  0  0  0  0  0  0  0  0  0  0
   19.1786   18.9755   21.9939 C   0  0  0  0  0  0  0  0  0  0  0  0
   19.1114   18.8737   23.0836 H   0  0  0  0  0  0  0  0  0  0  0  0
   18.8036   19.9746   21.7419 H   0  0  0  0  0  0  0  0  0  0  0  0
   20.6582   18.8447   21.5470 C   0  0  0  0  0  0  0  0  0  0  0  0
   21.0311   17.8418   21.7978 H   0  0  0  0  0  0  0  0  0  0  0  0
   20.7228   18.9441   20.4545 H   0  0  0  0  0  0  0  0  0  0  0  0
   21.5512   19.9093   22.2156 C   0  0  0  0  0  0  0  0  0  0  0  0
   21.5281   19.8111   23.3090 H   0  0  0  0  0  0  0  0  0  0  0  0
   22.5932   19.8010   21.8876 H   0  0  0  0  0  0  0  0  0  0  0  0
   21.2173   20.9222   21.9549 H   0  0  0  0  0  0  0  0  0  0  0  0
  1  2  1  0  0  0  0
  1  3  2  0  0  0  0
  1  4  1  0  0  0  0
  4  5  1  0  0  0  0
  4  6  1  0  0  0  0
  4  7  1  0  0  0  0
  7  8  1  0  0  0  0
  7  9  1  0  0  0  0
  7 10  1  0  0  0  0
 10 11  1  0  0  0  0
 10 12  1  0  0  0  0
 10 13  1  0  0  0  0
M  END
> <VConfSearch Rank>
353

> <Conf_Id>
0

> <Delta U+W>
0.000

> <U+W>
-58.332

> <U>
8.390

> <W>
-66.722

> <W(PB)>
-68.455

> <W(SA)>
1.733

> <Valence>
6.333

> <Coulomb>
1.215

> <VdW>
0.842

> <VdW6>
-3.344

> <VdW12>
4.186

> <Bond>
0.091

> <Angle>
2.713

> <Pdih>
3.529

> <Idih>
0.000

> <Tether>
0.000

$$$$
VeraChem MOL file


 13 12  0  0  0  0  0  0  0  0999 V2000     
   21.6565   17.7907   21.4835 C   0  0  0  0  0  0  0  0  0  0  0  0
   21.6196   16.6936   22.0035 O   0  5  0  0  0  0  0  0  0  0  0  0
   22.6881   18.3517   21.1730 O   0  0  0  0  0  0  0  0  0  0  0  0
   20.3375   18.5106   21.2237 C   0  0  0  0  0  0  0  0  0  0  0  0
   19.5732   17.7547   21.0056 H   0  0  0  0  0  0  0  0  0  0  0  0
   20.4544   19.1221   20.3207 H   0  0  0  0  0  0  0  0  0  0  0  0
   19.8879   19.3953   22.4116 C   0  0  0  0  0  0  0  0  0  0  0  0
   19.7838   18.7742   23.3123 H   0  0  0  0  0  0  0  0  0  0  0  0
   20.6650   20.1419   22.6272 H   0  0  0  0  0  0  0  0  0  0  0  0
   18.5528   20.1084   22.1179 C   0  0  0  0  0  0  0  0  0  0  0  0
   18.2508   20.7303   22.9708 H   0  0  0  0  0  0  0  0  0  0  0  0
   18.6404   20.7593   21.2380 H   0  0  0  0  0  0  0  0  0  0  0  0
   17.7524   19.3811   21.9284 H   0  0  0  0  0  0  0  0  0  0  0  0
  1  2  1  0  0  0  0
  1  3  2  0  0  0  0
  1  4  1  0  0  0  0
  4  5  1  0  0  0  0
  4  6  1  0  0  0  0
  4  7  1  0  0  0  0
  7  8  1  0  0  0  0
  7  9  1  0  0  0  0
  7 10  1  0  0  0  0
 10 11  1  0  0  0  0
 10 12  1  0  0  0  0
 10 13  1  0  0  0  0
M  END
> <VConfSearch Rank>
354

> <Conf_Id>
1

> <Delta U+W>
-1.339

> <U+W>
-59.672

> <U>
7.389

> <W>
-67.061

> <W(PB)>
-68.767

> <W(SA)>
1.707

> <Valence>
5.822

> <Coulomb>
1.255

> <VdW>
0.312

> <VdW6>
-3.061

> <VdW12>
3.372

> <Bond>
0.059

> <Angle>
2.241

> <Pdih>
3.522

> <Idih>
0.000

> <Tether>
0.000

$$$$
VeraChem MOL file


 13 12  0  0  0  0  0  0  0  0999 V2000     
   21.7312   19.0109   21.2033 C   0  0  0  0  0  0  0  0  0  0  0  0
   22.3357   17.9577   21.1652 O   0  5  0  0  0  0  0  0  0  0  0  0
   21.7097   19.8043   20.2835 O   0  0  0  0  0  0  0  0  0  0  0  0
   20.9900   19.3699   22.4888 C   0  0  0  0  0  0  0  0  0  0  0  0
   20.7804   20.4466   22.4846 H   0  0  0  0  0  0  0  0  0  0  0  0
   21.6756   19.1842   23.3243 H   0  0  0  0  0  0  0  0  0  0  0  0
   19.6796   18.5717   22.7100 C   0  0  0  0  0  0  0  0  0  0  0  0
   19.8942   17.4945   22.6712 H   0  0  0  0  0  0  0  0  0  0  0  0
   19.2964   18.7810   23.7180 H   0  0  0  0  0  0  0  0  0  0  0  0
   18.5919   18.9238   21.6742 C   0  0  0  0  0  0  0  0  0  0  0  0
   18.9250   18.6852   20.6554 H   0  0  0  0  0  0  0  0  0  0  0  0
   17.6725   18.3570   21.8708 H   0  0  0  0  0  0  0  0  0  0  0  0
   18.3461   19.9932   21.7115 H   0  0  0  0  0  0  0  0  0  0  0  0
  1  2  1  0  0  0  0
  1  3  2  0  0  0  0
  1  4  1  0  0  0  0
  4  5  1  0  0  0  0
  4  6  1  0  0  0  0
  4  7  1  0  0  0  0
  7  8  1  0  0  0  0
  7  9  1  0  0  0  0
  7 10  1  0  0  0  0
 10 11  1  0  0  0  0
 10 12  1  0  0  0  0
 10 13  1  0  0  0  0
M  END
> <VConfSearch Rank>
355

> <Conf_Id>
4

> <Delta U+W>
0.281

> <U+W>
-58.051

> <U>
9.781

> <W>
-67.832

> <W(PB)>
-69.535

> <W(SA)>
1.703

> <Valence>
6.123

> <Coulomb>
3.449

> <VdW>
0.209

> <VdW6>
-3.762

> <VdW12>
3.972

> <Bond>
0.078

> <Angle>
2.428

> <Pdih>
3.616

> <Idih>
0.002

> <Tether>
0.000

$$$$
VeraChem MOL file


 13 12  0  0  0  0  0  0  0  0999 V2000     
   19.9335   17.1924   22.1531 C   0  0  0  0  0  0  0  0  0  0  0  0
   19.5054   16.9228   23.2576 O   0  5  0  0  0  0  0  0  0  0  0  0
   19.6054   16.5994   21.1447 O   0  0  0  0  0  0  0  0  0  0  0  0
   20.9649   18.3109   22.0276 C   0  0  0  0  0  0  0  0  0  0  0  0
   21.7875   17.9295   21.4109 H   0  0  0  0  0  0  0  0  0  0  0  0
   21.3827   18.5168   23.0207 H   0  0  0  0  0  0  0  0  0  0  0  0
   20.4123   19.6162   21.3998 C   0  0  0  0  0  0  0  0  0  0  0  0
   21.2464   20.3053   21.2096 H   0  0  0  0  0  0  0  0  0  0  0  0
   19.9593   19.3918   20.4239 H   0  0  0  0  0  0  0  0  0  0  0  0
   19.3778   20.3152   22.3060 C   0  0  0  0  0  0  0  0  0  0  0  0
   19.8169   20.5687   23.2798 H   0  0  0  0  0  0  0  0  0  0  0  0
   19.0220   21.2442   21.8418 H   0  0  0  0  0  0  0  0  0  0  0  0
   18.5069   19.6699   22.4815 H   0  0  0  0  0  0  0  0  0  0  0  0
  1  2  1  0  0  0  0
  1  3  2  0  0  0  0
  1  4  1  0  0  0  0
  4  5  1  0  0  0  0
  4  6  1  0  0  0  0
  4  7  1  0  0  0  0
  7  8  1  0  0  0  0
  7  9  1  0  0  0  0
  7 10  1  0  0  0  0
 10 11  1  0  0  0  0
 10 12  1  0  0  0  0
 10 13  1  0  0  0  0
M  END
> <VConfSearch Rank>
356

> <Conf_Id>
36

> <Delta U+W>
0.272

> <U+W>
-58.060

> <U>
9.781

> <W>
-67.841

> <W(PB)>
-69.537

> <W(SA)>
1.696

> <Valence>
6.123

> <Coulomb>
3.449

> <VdW>
0.209

> <VdW6>
-3.762

> <VdW12>
3.972

> <Bond>
0.078

> <Angle>
2.428

> <Pdih>
3.616

> <Idih>
0.002

> <Tether>
0.000

$$$$
VeraChem MOL file


 13 12  0  0  0  0  0  0  0  0999 V2000     
   19.0161   20.8486   22.1671 C   0  0  0  0  0  0  0  0  0  0  0  0
   17.8773   20.4490   22.3109 O   0  5  0  0  0  0  0  0  0  0  0  0
   19.3185   22.0228   22.2350 O   0  0  0  0  0  0  0  0  0  0  0  0
   20.1423   19.8519   21.8862 C   0  0  0  0  0  0  0  0  0  0  0  0
   20.8945   19.9767   22.6742 H   0  0  0  0  0  0  0  0  0  0  0  0
   20.6150   20.1489   20.9424 H   0  0  0  0  0  0  0  0  0  0  0  0
   19.7092   18.3645   21.8082 C   0  0  0  0  0  0  0  0  0  0  0  0
   19.2331   18.0698   22.7539 H   0  0  0  0  0  0  0  0  0  0  0  0
   18.9532   18.2422   21.0200 H   0  0  0  0  0  0  0  0  0  0  0  0
   20.9072   17.4367   21.5225 C   0  0  0  0  0  0  0  0  0  0  0  0
   21.6642   17.5176   22.3137 H   0  0  0  0  0  0  0  0  0  0  0  0
   20.5815   16.3896   21.4710 H   0  0  0  0  0  0  0  0  0  0  0  0
   21.3821   17.6914   20.5659 H   0  0  0  0  0  0  0  0  0  0  0  0
  1  2  1  0  0  0  0
  1  3  2  0  0  0  0
  1  4  1  0  0  0  0
  4  5  1  0  0  0  0
  4  6  1  0  0  0  0
  4  7  1  0  0  0  0
  7  8  1  0  0  0  0
  7  9  1  0  0  0  0
  7 10  1  0  0  0  0
 10 11  1  0  0  0  0
 10 12  1  0  0  0  0
 10 13  1  0  0  0  0
M  END
> <VConfSearch Rank>
357

> <Conf_Id>
0

> <Delta U+W>
0.000

> <U+W>
-58.332

> <U>
8.390

> <W>
-66.722

> <W(PB)>
-68.455

> <W(SA)>
1.733

> <Valence>
6.333

> <Coulomb>
1.215

> <VdW>
0.842

> <VdW6>
-3.344

> <VdW12>
4.186

> <Bond>
0.091

> <Angle>
2.713

> <Pdih>
3.529

> <Idih>
0.000

> <Tether>
0.000

$$$$
VeraChem MOL file


 13 12  0  0  0  0  0  0  0  0999 V2000     
   21.6781   17.8472   21.3999 C   0  0  0  0  0  0  0  0  0  0  0  0
   22.7601   18.3609   21.6018 O   0  5  0  0  0  0  0  0  0  0  0  0
   21.5030   16.9390   20.6125 O   0  0  0  0  0  0  0  0  0  0  0  0
   20.4713   18.3839   22.1620 C   0  0  0  0  0  0  0  0  0  0  0  0
   20.8134   18.7246   23.1469 H   0  0  0  0  0  0  0  0  0  0  0  0
   19.7767   17.5520   22.3311 H   0  0  0  0  0  0  0  0  0  0  0  0
   19.7518   19.5362   21.4201 C   0  0  0  0  0  0  0  0  0  0  0  0
   20.4594   20.3592   21.2476 H   0  0  0  0  0  0  0  0  0  0  0  0
   19.4224   19.1864   20.4317 H   0  0  0  0  0  0  0  0  0  0  0  0
   18.5377   20.0561   22.2157 C   0  0  0  0  0  0  0  0  0  0  0  0
   18.0411   20.8719   21.6742 H   0  0  0  0  0  0  0  0  0  0  0  0
   17.8014   19.2575   22.3752 H   0  0  0  0  0  0  0  0  0  0  0  0
   18.8463   20.4393   23.1973 H   0  0  0  0  0  0  0  0  0  0  0  0
  1  2  1  0  0  0  0
  1  3  2  0  0  0  0
  1  4  1  0  0  0  0
  4  5  1  0  0  0  0
  4  6  1  0  0  0  0
  4  7  1  0  0  0  0
  7  8  1  0  0  0  0
  7  9  1  0  0  0  0
  7 10  1  0  0  0  0
 10 11  1  0  0  0  0
 10 12  1  0  0  0  0
 10 13  1  0  0  0  0
M  END
> <VConfSearch Rank>
358

> <Conf_Id>
1

> <Delta U+W>
-1.339

> <U+W>
-59.672

> <U>
7.389

> <W>
-67.061

> <W(PB)>
-68.767

> <W(SA)>
1.707

> <Valence>
5.822

> <Coulomb>
1.255

> <VdW>
0.312

> <VdW6>
-3.061

> <VdW12>
3.372

> <Bond>
0.059

> <Angle>
2.241

> <Pdih>
3.522

> <Idih>
0.000

> <Tether>
0.000

$$$$
VeraChem MOL file


 13 12  0  0  0  0  0  0  0  0999 V2000     
   21.0623   19.3627   23.4724 C   0  0  0  0  0  0  0  0  0  0  0  0
   21.1949   18.4620   24.2769 O   0  5  0  0  0  0  0  0  0  0  0  0
   21.9464   20.1484   23.1951 O   0  0  0  0  0  0  0  0  0  0  0  0
   19.7013   19.5357   22.8027 C   0  0  0  0  0  0  0  0  0  0  0  0
   19.6465   20.5436   22.3733 H   0  0  0  0  0  0  0  0  0  0  0  0
   18.9404   19.4855   23.5907 H   0  0  0  0  0  0  0  0  0  0  0  0
   19.3891   18.4747   21.7163 C   0  0  0  0  0  0  0  0  0  0  0  0
   19.4871   17.4681   22.1464 H   0  0  0  0  0  0  0  0  0  0  0  0
   18.3428   18.5818   21.3989 H   0  0  0  0  0  0  0  0  0  0  0  0
   20.3058   18.6057   20.4825 C   0  0  0  0  0  0  0  0  0  0  0  0
   21.3592   18.4597   20.7562 H   0  0  0  0  0  0  0  0  0  0  0  0
   20.0458   17.8541   19.7258 H   0  0  0  0  0  0  0  0  0  0  0  0
   20.2067   19.5981   20.0235 H   0  0  0  0  0  0  0  0  0  0  0  0
  1  2  1  0  0  0  0
  1  3  2  0  0  0  0
  1  4  1  0  0  0  0
  4  5  1  0  0  0  0
  4  6  1  0  0  0  0
  4  7  1  0  0  0  0
  7  8  1  0  0  0  0
  7  9  1  0  0  0  0
  7 10  1  0  0  0  0
 10 11  1  0  0  0  0
 10 12  1  0  0  0  0
 10 13  1  0  0  0  0
M  END
> <VConfSearch Rank>
359

> <Conf_Id>
4

> <Delta U+W>
0.281

> <U+W>
-58.051

> <U>
9.781

> <W>
-67.832

> <W(PB)>
-69.535

> <W(SA)>
1.703

> <Valence>
6.123

> <Coulomb>
3.449

> <VdW>
0.209

> <VdW6>
-3.762

> <VdW12>
3.972

> <Bond>
0.078

> <Angle>
2.428

> <Pdih>
3.616

> <Idih>
0.002

> <Tether>
0.000

$$$$
VeraChem MOL file


 13 12  0  0  0  0  0  0  0  0999 V2000     
   20.0547   17.2432   21.5148 C   0  0  0  0  0  0  0  0  0  0  0  0
   19.4444   17.1340   20.4700 O   0  5  0  0  0  0  0  0  0  0  0  0
   21.0316   16.5764   21.7924 O   0  0  0  0  0  0  0  0  0  0  0  0
   19.5486   18.2450   22.5497 C   0  0  0  0  0  0  0  0  0  0  0  0
   19.5124   17.7272   23.5156 H   0  0  0  0  0  0  0  0  0  0  0  0
   18.5165   18.5188   22.2982 H   0  0  0  0  0  0  0  0  0  0  0  0
   20.4223   19.5189   22.6800 C   0  0  0  0  0  0  0  0  0  0  0  0
   20.0761   20.1061   23.5416 H   0  0  0  0  0  0  0  0  0  0  0  0
   21.4620   19.2317   22.8909 H   0  0  0  0  0  0  0  0  0  0  0  0
   20.3717   20.4014   21.4157 C   0  0  0  0  0  0  0  0  0  0  0  0
   19.3431   20.7184   21.1992 H   0  0  0  0  0  0  0  0  0  0  0  0
   20.9840   21.3029   21.5484 H   0  0  0  0  0  0  0  0  0  0  0  0
   20.7535   19.8592   20.5404 H   0  0  0  0  0  0  0  0  0  0  0  0
  1  2  1  0  0  0  0
  1  3  2  0  0  0  0
  1  4  1  0  0  0  0
  4  5  1  0  0  0  0
  4  6  1  0  0  0  0
  4  7  1  0  0  0  0
  7  8  1  0  0  0  0
  7  9  1  0  0  0  0
  7 10  1  0  0  0  0
 10 11  1  0  0  0  0
 10 12  1  0  0  0  0
 10 13  1  0  0  0  0
M  END
> <VConfSearch Rank>
360

> <Conf_Id>
36

> <Delta U+W>
0.272

> <U+W>
-58.060

> <U>
9.781

> <W>
-67.841

> <W(PB)>
-69.537

> <W(SA)>
1.696

> <Valence>
6.123

> <Coulomb>
3.449

> <VdW>
0.209

> <VdW6>
-3.762

> <VdW12>
3.972

> <Bond>
0.078

> <Angle>
2.428

> <Pdih>
3.616

> <Idih>
0.002

> <Tether>
0.000

$$$$
VeraChem MOL file


 13 12  0  0  0  0  0  0  0  0999 V2000     
   18.8862   19.0959   20.0189 C   0  0  0  0  0  0  0  0  0  0  0  0
   18.6500   17.9154   19.8517 O   0  5  0  0  0  0  0  0  0  0  0  0
   18.4990   19.9617   19.2605 O   0  0  0  0  0  0  0  0  0  0  0  0
   19.7065   19.5433   21.2303 C   0  0  0  0  0  0  0  0  0  0  0  0
   19.0951   20.2576   21.7944 H   0  0  0  0  0  0  0  0  0  0  0  0
   20.5757   20.0945   20.8520 H   0  0  0  0  0  0  0  0  0  0  0  0
   20.1792   18.4036   22.1703 C   0  0  0  0  0  0  0  0  0  0  0  0
   19.3069   17.8508   22.5460 H   0  0  0  0  0  0  0  0  0  0  0  0
   20.7893   17.6873   21.6024 H   0  0  0  0  0  0  0  0  0  0  0  0
   20.9961   18.9482   23.3594 C   0  0  0  0  0  0  0  0  0  0  0  0
   20.3973   19.6440   23.9617 H   0  0  0  0  0  0  0  0  0  0  0  0
   21.3215   18.1280   24.0127 H   0  0  0  0  0  0  0  0  0  0  0  0
   21.8915   19.4793   23.0106 H   0  0  0  0  0  0  0  0  0  0  0  0
  1  2  1  0  0  0  0
  1  3  2  0  0  0  0
  1  4  1  0  0  0  0
  4  5  1  0  0  0  0
  4  6  1  0  0  0  0
  4  7  1  0  0  0  0
  7  8  1  0  0  0  0
  7  9  1  0  0  0  0
  7 10  1  0  0  0  0
 10 11  1  0  0  0  0
 10 12  1  0  0  0  0
 10 13  1  0  0  0  0
M  END
> <VConfSearch Rank>
361

> <Conf_Id>
0

> <Delta U+W>
0.000

> <U+W>
-58.332

> <U>
8.390

> <W>
-66.722

> <W(PB)>
-68.455

> <W(SA)>
1.733

> <Valence>
6.333

> <Coulomb>
1.215

> <VdW>
0.842

> <VdW6>
-3.344

> <VdW12>
4.186

> <Bond>
0.091

> <Angle>
2.713

> <Pdih>
3.529

> <Idih>
0.000

> <Tether>
0.000

$$$$
VeraChem MOL file


 13 12  0  0  0  0  0  0  0  0999 V2000     
   18.7274   17.7779   22.9614 C   0  0  0  0  0  0  0  0  0  0  0  0
   18.8575   17.8341   24.1678 O   0  5  0  0  0  0  0  0  0  0  0  0
   18.2804   16.8101   22.3791 O   0  0  0  0  0  0  0  0  0  0  0  0
   19.1663   18.9797   22.1318 C   0  0  0  0  0  0  0  0  0  0  0  0
   18.9928   19.8858   22.7250 H   0  0  0  0  0  0  0  0  0  0  0  0
   18.5169   19.0414   21.2500 H   0  0  0  0  0  0  0  0  0  0  0  0
   20.6498   18.9040   21.6965 C   0  0  0  0  0  0  0  0  0  0  0  0
   21.2898   18.8326   22.5870 H   0  0  0  0  0  0  0  0  0  0  0  0
   20.8138   17.9882   21.1116 H   0  0  0  0  0  0  0  0  0  0  0  0
   21.0619   20.1323   20.8605 C   0  0  0  0  0  0  0  0  0  0  0  0
   22.1158   20.0606   20.5615 H   0  0  0  0  0  0  0  0  0  0  0  0
   20.4552   20.2082   19.9485 H   0  0  0  0  0  0  0  0  0  0  0  0
   20.9349   21.0592   21.4353 H   0  0  0  0  0  0  0  0  0  0  0  0
  1  2  1  0  0  0  0
  1  3  2  0  0  0  0
  1  4  1  0  0  0  0
  4  5  1  0  0  0  0
  4  6  1  0  0  0  0
  4  7  1  0  0  0  0
  7  8  1  0  0  0  0
  7  9  1  0  0  0  0
  7 10  1  0  0  0  0
 10 11  1  0  0  0  0
 10 12  1  0  0  0  0
 10 13  1  0  0  0  0
M  END
> <VConfSearch Rank>
362

> <Conf_Id>
1

> <Delta U+W>
-1.339

> <U+W>
-59.672

> <U>
7.389

> <W>
-67.061

> <W(PB)>
-68.767

> <W(SA)>
1.707

> <Valence>
5.822

> <Coulomb>
1.255

> <VdW>
0.312

> <VdW6>
-3.061

> <VdW12>
3.372

> <Bond>
0.059

> <Angle>
2.241

> <Pdih>
3.522

> <Idih>
0.000

> <Tether>
0.000

$$$$
VeraChem MOL file


 13 12  0  0  0  0  0  0  0  0999 V2000     
   21.8576   18.6206   21.6985 C   0  0  0  0  0  0  0  0  0  0  0  0
   22.0953   17.6599   20.9936 O   0  5  0  0  0  0  0  0  0  0  0  0
   22.4778   19.6636   21.6402 O   0  0  0  0  0  0  0  0  0  0  0  0
   20.7442   18.4953   22.7354 C   0  0  0  0  0  0  0  0  0  0  0  0
   20.8664   19.2912   23.4803 H   0  0  0  0  0  0  0  0  0  0  0  0
   20.8923   17.5444   23.2610 H   0  0  0  0  0  0  0  0  0  0  0  0
   19.3138   18.5373   22.1390 C   0  0  0  0  0  0  0  0  0  0  0  0
   19.2152   17.7631   21.3651 H   0  0  0  0  0  0  0  0  0  0  0  0
   18.5883   18.2909   22.9262 H   0  0  0  0  0  0  0  0  0  0  0  0
   18.9627   19.9166   21.5439 C   0  0  0  0  0  0  0  0  0  0  0  0
   19.6426   20.1764   20.7217 H   0  0  0  0  0  0  0  0  0  0  0  0
   17.9385   19.9180   21.1488 H   0  0  0  0  0  0  0  0  0  0  0  0
   19.0334   20.7028   22.3070 H   0  0  0  0  0  0  0  0  0  0  0  0
  1  2  1  0  0  0  0
  1  3  2  0  0  0  0
  1  4  1  0  0  0  0
  4  5  1  0  0  0  0
  4  6  1  0  0  0  0
  4  7  1  0  0  0  0
  7  8  1  0  0  0  0
  7  9  1  0  0  0  0
  7 10  1  0  0  0  0
 10 11  1  0  0  0  0
 10 12  1  0  0  0  0
 10 13  1  0  0  0  0
M  END
> <VConfSearch Rank>
363

> <Conf_Id>
4

> <Delta U+W>
0.281

> <U+W>
-58.051

> <U>
9.781

> <W>
-67.832

> <W(PB)>
-69.535

> <W(SA)>
1.703

> <Valence>
6.123

> <Coulomb>
3.449

> <VdW>
0.209

> <VdW6>
-3.762

> <VdW12>
3.972

> <Bond>
0.078

> <Angle>
2.428

> <Pdih>
3.616

> <Idih>
0.002

> <Tether>
0.000

$$$$
VeraChem MOL file


 13 12  0  0  0  0  0  0  0  0999 V2000     
   21.8856   18.6827   21.9576 C   0  0  0  0  0  0  0  0  0  0  0  0
   22.2301   18.1202   22.9778 O   0  5  0  0  0  0  0  0  0  0  0  0
   22.3629   18.4423   20.8665 O   0  0  0  0  0  0  0  0  0  0  0  0
   20.8227   19.7743   22.0542 C   0  0  0  0  0  0  0  0  0  0  0  0
   21.1933   20.6419   21.4953 H   0  0  0  0  0  0  0  0  0  0  0  0
   20.7341   20.0868   23.1019 H   0  0  0  0  0  0  0  0  0  0  0  0
   19.4350   19.3595   21.5015 C   0  0  0  0  0  0  0  0  0  0  0  0
   18.7814   20.2420   21.4707 H   0  0  0  0  0  0  0  0  0  0  0  0
   19.5415   19.0093   20.4652 H   0  0  0  0  0  0  0  0  0  0  0  0
   18.7628   18.2643   22.3551 C   0  0  0  0  0  0  0  0  0  0  0  0
   18.6264   18.6024   23.3907 H   0  0  0  0  0  0  0  0  0  0  0  0
   17.7758   18.0083   21.9486 H   0  0  0  0  0  0  0  0  0  0  0  0
   19.3694   17.3491   22.3717 H   0  0  0  0  0  0  0  0  0  0  0  0
  1  2  1  0  0  0  0
  1  3  2  0  0  0  0
  1  4  1  0  0  0  0
  4  5  1  0  0  0  0
  4  6  1  0  0  0  0
  4  7  1  0  0  0  0
  7  8  1  0  0  0  0
  7  9  1  0  0  0  0
  7 10  1  0  0  0  0
 10 11  1  0  0  0  0
 10 12  1  0  0  0  0
 10 13  1  0  0  0  0
M  END
> <VConfSearch Rank>
364

> <Conf_Id>
36

> <Delta U+W>
0.272

> <U+W>
-58.060

> <U>
9.781

> <W>
-67.841

> <W(PB)>
-69.537

> <W(SA)>
1.696

> <Valence>
6.123

> <Coulomb>
3.449

> <VdW>
0.209

> <VdW6>
-3.762

> <VdW12>
3.972

> <Bond>
0.078

> <Angle>
2.428

> <Pdih>
3.616

> <Idih>
0.002

> <Tether>
0.000

$$$$
VeraChem MOL file


 13 12  0  0  0  0  0  0  0  0999 V2000     
   20.1419   17.1247   22.8277 C   0  0  0  0  0  0  0  0  0  0  0  0
   19.9324   16.3691   21.8990 O   0  5  0  0  0  0  0  0  0  0  0  0
   20.3451   16.7390   23.9612 O   0  0  0  0  0  0  0  0  0  0  0  0
   20.1565   18.6360   22.5903 C   0  0  0  0  0  0  0  0  0  0  0  0
   21.1332   19.0100   22.9197 H   0  0  0  0  0  0  0  0  0  0  0  0
   19.4038   19.0791   23.2532 H   0  0  0  0  0  0  0  0  0  0  0  0
   19.8923   19.0816   21.1283 C   0  0  0  0  0  0  0  0  0  0  0  0
   20.6460   18.6341   20.4653 H   0  0  0  0  0  0  0  0  0  0  0  0
   18.9144   18.7032   20.7992 H   0  0  0  0  0  0  0  0  0  0  0  0
   19.9261   20.6166   20.9858 C   0  0  0  0  0  0  0  0  0  0  0  0
   20.9053   21.0171   21.2797 H   0  0  0  0  0  0  0  0  0  0  0  0
   19.7373   20.9125   19.9456 H   0  0  0  0  0  0  0  0  0  0  0  0
   19.1599   21.0867   21.6163 H   0  0  0  0  0  0  0  0  0  0  0  0
  1  2  1  0  0  0  0
  1  3  2  0  0  0  0
  1  4  1  0  0  0  0
  4  5  1  0  0  0  0
  4  6  1  0  0  0  0
  4  7  1  0  0  0  0
  7  8  1  0  0  0  0
  7  9  1  0  0  0  0
  7 10  1  0  0  0  0
 10 11  1  0  0  0  0
 10 12  1  0  0  0  0
 10 13  1  0  0  0  0
M  END
> <VConfSearch Rank>
365

> <Conf_Id>
0

> <Delta U+W>
0.000

> <U+W>
-58.332

> <U>
8.390

> <W>
-66.722

> <W(PB)>
-68.455

> <W(SA)>
1.733

> <Valence>
6.333

> <Coulomb>
1.215

> <VdW>
0.842

> <VdW6>
-3.344

> <VdW12>
4.186

> <Bond>
0.091

> <Angle>
2.713

> <Pdih>
3.529

> <Idih>
0.000

> <Tether>
0.000

$$$$
VeraChem MOL file


 13 12  0  0  0  0  0  0  0  0999 V2000     
   19.0528   17.2617   22.4817 C   0  0  0  0  0  0  0  0  0  0  0  0
   18.4148   16.6573   21.6433 O   0  5  0  0  0  0  0  0  0  0  0  0
   18.8460   17.1727   23.6753 O   0  0  0  0  0  0  0  0  0  0  0  0
   20.1609   18.1969   22.0094 C   0  0  0  0  0  0  0  0  0  0  0  0
   20.5955   17.7765   21.0943 H   0  0  0  0  0  0  0  0  0  0  0  0
   20.9511   18.2015   22.7700 H   0  0  0  0  0  0  0  0  0  0  0  0
   19.6638   19.6394   21.7490 C   0  0  0  0  0  0  0  0  0  0  0  0
   18.8662   19.6214   20.9932 H   0  0  0  0  0  0  0  0  0  0  0  0
   19.2220   20.0465   22.6692 H   0  0  0  0  0  0  0  0  0  0  0  0
   20.8064   20.5589   21.2732 C   0  0  0  0  0  0  0  0  0  0  0  0
   20.4349   21.5763   21.0940 H   0  0  0  0  0  0  0  0  0  0  0  0
   21.6034   20.6167   22.0262 H   0  0  0  0  0  0  0  0  0  0  0  0
   21.2449   20.1883   20.3372 H   0  0  0  0  0  0  0  0  0  0  0  0
  1  2  1  0  0  0  0
  1  3  2  0  0  0  0
  1  4  1  0  0  0  0
  4  5  1  0  0  0  0
  4  6  1  0  0  0  0
  4  7  1  0  0  0  0
  7  8  1  0  0  0  0
  7  9  1  0  0  0  0
  7 10  1  0  0  0  0
 10 11  1  0  0  0  0
 10 12  1  0  0  0  0
 10 13  1  0  0  0  0
M  END
> <VConfSearch Rank>
366

> <Conf_Id>
1

> <Delta U+W>
-1.339

> <U+W>
-59.672

> <U>
7.389

> <W>
-67.061

> <W(PB)>
-68.767

> <W(SA)>
1.707

> <Valence>
5.822

> <Coulomb>
1.255

> <VdW>
0.312

> <VdW6>
-3.061

> <VdW12>
3.372

> <Bond>
0.059

> <Angle>
2.241

> <Pdih>
3.522

> <Idih>
0.000

> <Tether>
0.000

$$$$
VeraChem MOL file


 13 12  0  0  0  0  0  0  0  0999 V2000     
   19.6797   17.2323   21.9726 C   0  0  0  0  0  0  0  0  0  0  0  0
   19.4566   16.7237   23.0532 O   0  5  0  0  0  0  0  0  0  0  0  0
   19.0322   16.9921   20.9731 O   0  0  0  0  0  0  0  0  0  0  0  0
   20.8582   18.1961   21.8596 C   0  0  0  0  0  0  0  0  0  0  0  0
   21.1193   18.3092   20.8002 H   0  0  0  0  0  0  0  0  0  0  0  0
   21.7172   17.7210   22.3483 H   0  0  0  0  0  0  0  0  0  0  0  0
   20.6052   19.5857   22.4984 C   0  0  0  0  0  0  0  0  0  0  0  0
   20.3043   19.4587   23.5478 H   0  0  0  0  0  0  0  0  0  0  0  0
   21.5449   20.1548   22.5062 H   0  0  0  0  0  0  0  0  0  0  0  0
   19.5316   20.3961   21.7430 C   0  0  0  0  0  0  0  0  0  0  0  0
   18.5645   19.8761   21.7535 H   0  0  0  0  0  0  0  0  0  0  0  0
   19.3912   21.3804   22.2085 H   0  0  0  0  0  0  0  0  0  0  0  0
   19.8232   20.5539   20.6964 H   0  0  0  0  0  0  0  0  0  0  0  0
  1  2  1  0  0  0  0
  1  3  2  0  0  0  0
  1  4  1  0  0  0  0
  4  5  1  0  0  0  0
  4  6  1  0  0  0  0
  4  7  1  0  0  0  0
  7  8  1  0  0  0  0
  7  9  1  0  0  0  0
  7 10  1  0  0  0  0
 10 11  1  0  0  0  0
 10 12  1  0  0  0  0
 10 13  1  0  0  0  0
M  END
> <VConfSearch Rank>
367

> <Conf_Id>
4

> <Delta U+W>
0.281

> <U+W>
-58.051

> <U>
9.781

> <W>
-67.832

> <W(PB)>
-69.535

> <W(SA)>
1.703

> <Valence>
6.123

> <Coulomb>
3.449

> <VdW>
0.209

> <VdW6>
-3.762

> <VdW12>
3.972

> <Bond>
0.078

> <Angle>
2.428

> <Pdih>
3.616

> <Idih>
0.002

> <Tether>
0.000

$$$$
VeraChem MOL file


 13 12  0  0  0  0  0  0  0  0999 V2000     
   19.7700   20.4677   22.9138 C   0  0  0  0  0  0  0  0  0  0  0  0
   19.8597   20.2467   24.1050 O   0  5  0  0  0  0  0  0  0  0  0  0
   20.1327   21.5053   22.3961 O   0  0  0  0  0  0  0  0  0  0  0  0
   19.1358   19.4017   22.0237 C   0  0  0  0  0  0  0  0  0  0  0  0
   18.3932   19.9031   21.3915 H   0  0  0  0  0  0  0  0  0  0  0  0
   18.5865   18.6954   22.6582 H   0  0  0  0  0  0  0  0  0  0  0  0
   20.1460   18.6403   21.1275 C   0  0  0  0  0  0  0  0  0  0  0  0
   19.5933   18.0075   20.4196 H   0  0  0  0  0  0  0  0  0  0  0  0
   20.7195   19.3599   20.5264 H   0  0  0  0  0  0  0  0  0  0  0  0
   21.1117   17.7575   21.9447 C   0  0  0  0  0  0  0  0  0  0  0  0
   20.5595   17.0156   22.5365 H   0  0  0  0  0  0  0  0  0  0  0  0
   21.7991   17.2182   21.2801 H   0  0  0  0  0  0  0  0  0  0  0  0
   21.7139   18.3644   22.6338 H   0  0  0  0  0  0  0  0  0  0  0  0
  1  2  1  0  0  0  0
  1  3  2  0  0  0  0
  1  4  1  0  0  0  0
  4  5  1  0  0  0  0
  4  6  1  0  0  0  0
  4  7  1  0  0  0  0
  7  8  1  0  0  0  0
  7  9  1  0  0  0  0
  7 10  1  0  0  0  0
 10 11  1  0  0  0  0
 10 12  1  0  0  0  0
 10 13  1  0  0  0  0
M  END
> <VConfSearch Rank>
368

> <Conf_Id>
36

> <Delta U+W>
0.272

> <U+W>
-58.060

> <U>
9.781

> <W>
-67.841

> <W(PB)>
-69.537

> <W(SA)>
1.696

> <Valence>
6.123

> <Coulomb>
3.449

> <VdW>
0.209

> <VdW6>
-3.762

> <VdW12>
3.972

> <Bond>
0.078

> <Angle>
2.428

> <Pdih>
3.616

> <Idih>
0.002

> <Tether>
0.000

$$$$
VeraChem MOL file


 13 12  0  0  0  0  0  0  0  0999 V2000     
   20.2666   16.8848   21.7163 C   0  0  0  0  0  0  0  0  0  0  0  0
   19.6010   16.5445   22.6746 O   0  5  0  0  0  0  0  0  0  0  0  0
   20.8473   16.0944   21.0001 O   0  0  0  0  0  0  0  0  0  0  0  0
   20.3986   18.3693   21.3703 C   0  0  0  0  0  0  0  0  0  0  0  0
   20.0424   18.4989   20.3414 H   0  0  0  0  0  0  0  0  0  0  0  0
   21.4678   18.6124   21.3721 H   0  0  0  0  0  0  0  0  0  0  0  0
   19.6403   19.3409   22.3121 C   0  0  0  0  0  0  0  0  0  0  0  0
   18.5695   19.0938   22.3111 H   0  0  0  0  0  0  0  0  0  0  0  0
   19.9966   19.2073   23.3431 H   0  0  0  0  0  0  0  0  0  0  0  0
   19.8309   20.8109   21.8868 C   0  0  0  0  0  0  0  0  0  0  0  0
   19.4535   20.9777   20.8694 H   0  0  0  0  0  0  0  0  0  0  0  0
   19.2877   21.4827   22.5642 H   0  0  0  0  0  0  0  0  0  0  0  0
   20.8920   21.0921   21.9096 H   0  0  0  0  0  0  0  0  0  0  0  0
  1  2  1  0  0  0  0
  1  3  2  0  0  0  0
  1  4  1  0  0  0  0
  4  5  1  0  0  0  0
  4  6  1  0  0  0  0
  4  7  1  0  0  0  0
  7  8  1  0  0  0  0
  7  9  1  0  0  0  0
  7 10  1  0  0  0  0
 10 11  1  0  0  0  0
 10 12  1  0  0  0  0
 10 13  1  0  0  0  0
M  END
> <VConfSearch Rank>
369

> <Conf_Id>
0

> <Delta U+W>
0.000

> <U+W>
-58.332

> <U>
8.390

> <W>
-66.722

> <W(PB)>
-68.455

> <W(SA)>
1.733

> <Valence>
6.333

> <Coulomb>
1.215

> <VdW>
0.842

> <VdW6>
-3.344

> <VdW12>
4.186

> <Bond>
0.091

> <Angle>
2.713

> <Pdih>
3.529

> <Idih>
0.000

> <Tether>
0.000

$$$$
VeraChem MOL file


 13 12  0  0  0  0  0  0  0  0999 V2000     
   20.6798   19.1728   19.8406 C   0  0  0  0  0  0  0  0  0  0  0  0
   21.1561   20.2405   19.5110 O   0  5  0  0  0  0  0  0  0  0  0  0
   20.1986   18.3815   19.0547 O   0  0  0  0  0  0  0  0  0  0  0  0
   20.6685   18.8147   21.3228 C   0  0  0  0  0  0  0  0  0  0  0  0
   21.5569   19.2590   21.7882 H   0  0  0  0  0  0  0  0  0  0  0  0
   20.7672   17.7260   21.4118 H   0  0  0  0  0  0  0  0  0  0  0  0
   19.3896   19.2948   22.0506 C   0  0  0  0  0  0  0  0  0  0  0  0
   19.2960   20.3849   21.9464 H   0  0  0  0  0  0  0  0  0  0  0  0
   18.5062   18.8515   21.5701 H   0  0  0  0  0  0  0  0  0  0  0  0
   19.4089   18.9180   23.5456 C   0  0  0  0  0  0  0  0  0  0  0  0
   18.4949   19.2664   24.0441 H   0  0  0  0  0  0  0  0  0  0  0  0
   19.4721   17.8295   23.6755 H   0  0  0  0  0  0  0  0  0  0  0  0
   20.2679   19.3747   24.0547 H   0  0  0  0  0  0  0  0  0  0  0  0
  1  2  1  0  0  0  0
  1  3  2  0  0  0  0
  1  4  1  0  0  0  0
  4  5  1  0  0  0  0
  4  6  1  0  0  0  0
  4  7  1  0  0  0  0
  7  8  1  0  0  0  0
  7  9  1  0  0  0  0
  7 10  1  0  0  0  0
 10 11  1  0  0  0  0
 10 12  1  0  0  0  0
 10 13  1  0  0  0  0
M  END
> <VConfSearch Rank>
370

> <Conf_Id>
1

> <Delta U+W>
-1.339

> <U+W>
-59.672

> <U>
7.389

> <W>
-67.061

> <W(PB)>
-68.767

> <W(SA)>
1.707

> <Valence>
5.822

> <Coulomb>
1.255

> <VdW>
0.312

> <VdW6>
-3.061

> <VdW12>
3.372

> <Bond>
0.059

> <Angle>
2.241

> <Pdih>
3.522

> <Idih>
0.000

> <Tether>
0.000

$$$$
VeraChem MOL file


 13 12  0  0  0  0  0  0  0  0999 V2000     
   20.3167   20.6298   21.3554 C   0  0  0  0  0  0  0  0  0  0  0  0
   20.3898   20.7298   20.1468 O   0  5  0  0  0  0  0  0  0  0  0  0
   19.7030   21.4099   22.0559 O   0  0  0  0  0  0  0  0  0  0  0  0
   21.0658   19.4833   22.0300 C   0  0  0  0  0  0  0  0  0  0  0  0
   21.1689   19.7111   23.0981 H   0  0  0  0  0  0  0  0  0  0  0  0
   22.0791   19.4635   21.6113 H   0  0  0  0  0  0  0  0  0  0  0  0
   20.4031   18.0945   21.8418 C   0  0  0  0  0  0  0  0  0  0  0  0
   20.2669   17.8942   20.7698 H   0  0  0  0  0  0  0  0  0  0  0  0
   21.0796   17.3181   22.2245 H   0  0  0  0  0  0  0  0  0  0  0  0
   19.0470   17.9841   22.5689 C   0  0  0  0  0  0  0  0  0  0  0  0
   18.3295   18.7186   22.1796 H   0  0  0  0  0  0  0  0  0  0  0  0
   18.6150   16.9842   22.4322 H   0  0  0  0  0  0  0  0  0  0  0  0
   19.1640   18.1590   23.6465 H   0  0  0  0  0  0  0  0  0  0  0  0
  1  2  1  0  0  0  0
  1  3  2  0  0  0  0
  1  4  1  0  0  0  0
  4  5  1  0  0  0  0
  4  6  1  0  0  0  0
  4  7  1  0  0  0  0
  7  8  1  0  0  0  0
  7  9  1  0  0  0  0
  7 10  1  0  0  0  0
 10 11  1  0  0  0  0
 10 12  1  0  0  0  0
 10 13  1  0  0  0  0
M  END
> <VConfSearch Rank>
371

> <Conf_Id>
4

> <Delta U+W>
0.281

> <U+W>
-58.051

> <U>
9.781

> <W>
-67.832

> <W(PB)>
-69.535

> <W(SA)>
1.703

> <Valence>
6.123

> <Coulomb>
3.449

> <VdW>
0.209

> <VdW6>
-3.762

> <VdW12>
3.972

> <Bond>
0.078

> <Angle>
2.428

> <Pdih>
3.616

> <Idih>
0.002

> <Tether>
0.000

$$$$
VeraChem MOL file


 13 12  0  0  0  0  0  0  0  0999 V2000     
   21.1101   18.1519   20.7483 C   0  0  0  0  0  0  0  0  0  0  0  0
   22.2153   18.6552   20.7138 O   0  5  0  0  0  0  0  0  0  0  0  0
   20.9114   16.9622   20.6025 O   0  0  0  0  0  0  0  0  0  0  0  0
   19.9030   19.0645   20.9496 C   0  0  0  0  0  0  0  0  0  0  0  0
   19.1596   18.7959   20.1895 H   0  0  0  0  0  0  0  0  0  0  0  0
   20.2061   20.0986   20.7446 H   0  0  0  0  0  0  0  0  0  0  0  0
   19.2603   18.9656   22.3569 C   0  0  0  0  0  0  0  0  0  0  0  0
   18.3202   19.5341   22.3640 H   0  0  0  0  0  0  0  0  0  0  0  0
   18.9982   17.9195   22.5687 H   0  0  0  0  0  0  0  0  0  0  0  0
   20.1846   19.5063   23.4674 C   0  0  0  0  0  0  0  0  0  0  0  0
   20.4411   20.5584   23.2867 H   0  0  0  0  0  0  0  0  0  0  0  0
   19.6926   19.4400   24.4465 H   0  0  0  0  0  0  0  0  0  0  0  0
   21.1185   18.9309   23.5185 H   0  0  0  0  0  0  0  0  0  0  0  0
  1  2  1  0  0  0  0
  1  3  2  0  0  0  0
  1  4  1  0  0  0  0
  4  5  1  0  0  0  0
  4  6  1  0  0  0  0
  4  7  1  0  0  0  0
  7  8  1  0  0  0  0
  7  9  1  0  0  0  0
  7 10  1  0  0  0  0
 10 11  1  0  0  0  0
 10 12  1  0  0  0  0
 10 13  1  0  0  0  0
M  END
> <VConfSearch Rank>
372

> <Conf_Id>
36

> <Delta U+W>
0.272

> <U+W>
-58.060

> <U>
9.781

> <W>
-67.841

> <W(PB)>
-69.537

> <W(SA)>
1.696

> <Valence>
6.123

> <Coulomb>
3.449

> <VdW>
0.209

> <VdW6>
-3.762

> <VdW12>
3.972

> <Bond>
0.078

> <Angle>
2.428

> <Pdih>
3.616

> <Idih>
0.002

> <Tether>
0.000

$$$$
VeraChem MOL file


 13 12  0  0  0  0  0  0  0  0999 V2000     
   19.5313   19.2713   19.7634 C   0  0  0  0  0  0  0  0  0  0  0  0
   18.4314   18.7548   19.7358 O   0  5  0  0  0  0  0  0  0  0  0  0
   20.0567   19.7611   18.7842 O   0  0  0  0  0  0  0  0  0  0  0  0
   20.3150   19.3222   21.0764 C   0  0  0  0  0  0  0  0  0  0  0  0
   20.5362   20.3757   21.2854 H   0  0  0  0  0  0  0  0  0  0  0  0
   21.2752   18.8214   20.9045 H   0  0  0  0  0  0  0  0  0  0  0  0
   19.6049   18.6849   22.2993 C   0  0  0  0  0  0  0  0  0  0  0  0
   18.6416   19.1862   22.4680 H   0  0  0  0  0  0  0  0  0  0  0  0
   19.3815   17.6301   22.0866 H   0  0  0  0  0  0  0  0  0  0  0  0
   20.4676   18.7828   23.5736 C   0  0  0  0  0  0  0  0  0  0  0  0
   20.6790   19.8304   23.8255 H   0  0  0  0  0  0  0  0  0  0  0  0
   19.9491   18.3270   24.4273 H   0  0  0  0  0  0  0  0  0  0  0  0
   21.4249   18.2618   23.4410 H   0  0  0  0  0  0  0  0  0  0  0  0
  1  2  1  0  0  0  0
  1  3  2  0  0  0  0
  1  4  1  0  0  0  0
  4  5  1  0  0  0  0
  4  6  1  0  0  0  0
  4  7  1  0  0  0  0
  7  8  1  0  0  0  0
  7  9  1  0  0  0  0
  7 10  1  0  0  0  0
 10 11  1  0  0  0  0
 10 12  1  0  0  0  0
 10 13  1  0  0  0  0
M  END
> <VConfSearch Rank>
373

> <Conf_Id>
0

> <Delta U+W>
0.000

> <U+W>
-58.332

> <U>
8.390

> <W>
-66.722

> <W(PB)>
-68.455

> <W(SA)>
1.733

> <Valence>
6.333

> <Coulomb>
1.215

> <VdW>
0.842

> <VdW6>
-3.344

> <VdW12>
4.186

> <Bond>
0.091

> <Angle>
2.713

> <Pdih>
3.529

> <Idih>
0.000

> <Tether>
0.000

$$$$
VeraChem MOL file


 13 12  0  0  0  0  0  0  0  0999 V2000     
   20.1764   17.0744   21.0813 C   0  0  0  0  0  0  0  0  0  0  0  0
   21.1110   16.4266   21.5082 O   0  5  0  0  0  0  0  0  0  0  0  0
   19.6436   16.8588   20.0112 O   0  0  0  0  0  0  0  0  0  0  0  0
   19.6561   18.2327   21.9258 C   0  0  0  0  0  0  0  0  0  0  0  0
   19.7879   17.9708   22.9827 H   0  0  0  0  0  0  0  0  0  0  0  0
   18.5778   18.3273   21.7482 H   0  0  0  0  0  0  0  0  0  0  0  0
   20.3663   19.5727   21.6165 C   0  0  0  0  0  0  0  0  0  0  0  0
   21.4463   19.4633   21.7882 H   0  0  0  0  0  0  0  0  0  0  0  0
   20.2359   19.8198   20.5536 H   0  0  0  0  0  0  0  0  0  0  0  0
   19.8183   20.7223   22.4857 C   0  0  0  0  0  0  0  0  0  0  0  0
   20.3336   21.6631   22.2522 H   0  0  0  0  0  0  0  0  0  0  0  0
   18.7449   20.8708   22.3092 H   0  0  0  0  0  0  0  0  0  0  0  0
   19.9646   20.5115   23.5533 H   0  0  0  0  0  0  0  0  0  0  0  0
  1  2  1  0  0  0  0
  1  3  2  0  0  0  0
  1  4  1  0  0  0  0
  4  5  1  0  0  0  0
  4  6  1  0  0  0  0
  4  7  1  0  0  0  0
  7  8  1  0  0  0  0
  7  9  1  0  0  0  0
  7 10  1  0  0  0  0
 10 11  1  0  0  0  0
 10 12  1  0  0  0  0
 10 13  1  0  0  0  0
M  END
> <VConfSearch Rank>
374

> <Conf_Id>
1

> <Delta U+W>
-1.339

> <U+W>
-59.672

> <U>
7.389

> <W>
-67.061

> <W(PB)>
-68.767

> <W(SA)>
1.707

> <Valence>
5.822

> <Coulomb>
1.255

> <VdW>
0.312

> <VdW6>
-3.061

> <VdW12>
3.372

> <Bond>
0.059

> <Angle>
2.241

> <Pdih>
3.522

> <Idih>
0.000

> <Tether>
0.000

$$$$
VeraChem MOL file


 13 12  0  0  0  0  0  0  0  0999 V2000     
   18.6192   19.8340   21.5587 C   0  0  0  0  0  0  0  0  0  0  0  0
   17.7646   19.8874   22.4206 O   0  5  0  0  0  0  0  0  0  0  0  0
   18.8831   20.7610   20.8191 O   0  0  0  0  0  0  0  0  0  0  0  0
   19.3748   18.5203   21.3739 C   0  0  0  0  0  0  0  0  0  0  0  0
   19.8562   18.5274   20.3883 H   0  0  0  0  0  0  0  0  0  0  0  0
   18.6309   17.7148   21.3571 H   0  0  0  0  0  0  0  0  0  0  0  0
   20.4235   18.2307   22.4782 C   0  0  0  0  0  0  0  0  0  0  0  0
   19.9390   18.2667   23.4641 H   0  0  0  0  0  0  0  0  0  0  0  0
   20.8063   17.2087   22.3519 H   0  0  0  0  0  0  0  0  0  0  0  0
   21.6068   19.2199   22.4427 C   0  0  0  0  0  0  0  0  0  0  0  0
   21.2652   20.2500   22.6105 H   0  0  0  0  0  0  0  0  0  0  0  0
   22.3391   18.9752   23.2231 H   0  0  0  0  0  0  0  0  0  0  0  0
   22.1195   19.1839   21.4726 H   0  0  0  0  0  0  0  0  0  0  0  0
  1  2  1  0  0  0  0
  1  3  2  0  0  0  0
  1  4  1  0  0  0  0
  4  5  1  0  0  0  0
  4  6  1  0  0  0  0
  4  7  1  0  0  0  0
  7  8  1  0  0  0  0
  7  9  1  0  0  0  0
  7 10  1  0  0  0  0
 10 11  1  0  0  0  0
 10 12  1  0  0  0  0
 10 13  1  0  0  0  0
M  END
> <VConfSearch Rank>
375

> <Conf_Id>
4

> <Delta U+W>
0.281

> <U+W>
-58.051

> <U>
9.781

> <W>
-67.832

> <W(PB)>
-69.535

> <W(SA)>
1.703

> <Valence>
6.123

> <Coulomb>
3.449

> <VdW>
0.209

> <VdW6>
-3.762

> <VdW12>
3.972

> <Bond>
0.078

> <Angle>
2.428

> <Pdih>
3.616

> <Idih>
0.002

> <Tether>
0.000

$$$$
VeraChem MOL file


 13 12  0  0  0  0  0  0  0  0999 V2000     
   18.6547   18.7867   23.0163 C   0  0  0  0  0  0  0  0  0  0  0  0
   17.8370   19.6313   22.7096 O   0  5  0  0  0  0  0  0  0  0  0  0
   18.3589   17.6500   23.3270 O   0  0  0  0  0  0  0  0  0  0  0  0
   20.1290   19.1816   23.0482 C   0  0  0  0  0  0  0  0  0  0  0  0
   20.5424   18.8255   23.9994 H   0  0  0  0  0  0  0  0  0  0  0  0
   20.1994   20.2762   23.0624 H   0  0  0  0  0  0  0  0  0  0  0  0
   20.9653   18.6080   21.8757 C   0  0  0  0  0  0  0  0  0  0  0  0
   22.0290   18.8127   22.0584 H   0  0  0  0  0  0  0  0  0  0  0  0
   20.8547   17.5150   21.8453 H   0  0  0  0  0  0  0  0  0  0  0  0
   20.5630   19.2103   20.5136 C   0  0  0  0  0  0  0  0  0  0  0  0
   20.6873   20.3012   20.5148 H   0  0  0  0  0  0  0  0  0  0  0  0
   21.1862   18.7984   19.7092 H   0  0  0  0  0  0  0  0  0  0  0  0
   19.5143   18.9863   20.2772 H   0  0  0  0  0  0  0  0  0  0  0  0
  1  2  1  0  0  0  0
  1  3  2  0  0  0  0
  1  4  1  0  0  0  0
  4  5  1  0  0  0  0
  4  6  1  0  0  0  0
  4  7  1  0  0  0  0
  7  8  1  0  0  0  0
  7  9  1  0  0  0  0
  7 10  1  0  0  0  0
 10 11  1  0  0  0  0
 10 12  1  0  0  0  0
 10 13  1  0  0  0  0
M  END
> <VConfSearch Rank>
376

> <Conf_Id>
36

> <Delta U+W>
0.272

> <U+W>
-58.060

> <U>
9.781

> <W>
-67.841

> <W(PB)>
-69.537

> <W(SA)>
1.696

> <Valence>
6.123

> <Coulomb>
3.449

> <VdW>
0.209

> <VdW6>
-3.762

> <VdW12>
3.972

> <Bond>
0.078

> <Angle>
2.428

> <Pdih>
3.616

> <Idih>
0.002

> <Tether>
0.000

$$$$
VeraChem MOL file


 13 12  0  0  0  0  0  0  0  0999 V2000     
   20.1131   19.7060   19.8104 C   0  0  0  0  0  0  0  0  0  0  0  0
   20.1423   18.6479   19.2130 O   0  5  0  0  0  0  0  0  0  0  0  0
   20.1368   20.7830   19.2497 O   0  0  0  0  0  0  0  0  0  0  0  0
   20.0434   19.7150   21.3387 C   0  0  0  0  0  0  0  0  0  0  0  0
   19.1473   20.2795   21.6226 H   0  0  0  0  0  0  0  0  0  0  0  0
   20.9081   20.2825   21.7028 H   0  0  0  0  0  0  0  0  0  0  0  0
   20.0151   18.3173   22.0108 C   0  0  0  0  0  0  0  0  0  0  0  0
   19.1495   17.7492   21.6423 H   0  0  0  0  0  0  0  0  0  0  0  0
   20.9124   17.7521   21.7226 H   0  0  0  0  0  0  0  0  0  0  0  0
   19.9449   18.4256   23.5474 C   0  0  0  0  0  0  0  0  0  0  0  0
   19.0393   18.9604   23.8627 H   0  0  0  0  0  0  0  0  0  0  0  0
   19.9258   17.4277   24.0047 H   0  0  0  0  0  0  0  0  0  0  0  0
   20.8164   18.9633   23.9436 H   0  0  0  0  0  0  0  0  0  0  0  0
  1  2  1  0  0  0  0
  1  3  2  0  0  0  0
  1  4  1  0  0  0  0
  4  5  1  0  0  0  0
  4  6  1  0  0  0  0
  4  7  1  0  0  0  0
  7  8  1  0  0  0  0
  7  9  1  0  0  0  0
  7 10  1  0  0  0  0
 10 11  1  0  0  0  0
 10 12  1  0  0  0  0
 10 13  1  0  0  0  0
M  END
> <VConfSearch Rank>
377

> <Conf_Id>
0

> <Delta U+W>
0.000

> <U+W>
-58.332

> <U>
8.390

> <W>
-66.722

> <W(PB)>
-68.455

> <W(SA)>
1.733

> <Valence>
6.333

> <Coulomb>
1.215

> <VdW>
0.842

> <VdW6>
-3.344

> <VdW12>
4.186

> <Bond>
0.091

> <Angle>
2.713

> <Pdih>
3.529

> <Idih>
0.000

> <Tether>
0.000

$$$$
VeraChem MOL file


 13 12  0  0  0  0  0  0  0  0999 V2000     
   18.3267   18.9593   23.1317 C   0  0  0  0  0  0  0  0  0  0  0  0
   18.5024   18.3868   24.1885 O   0  5  0  0  0  0  0  0  0  0  0  0
   17.2365   19.0898   22.6124 O   0  0  0  0  0  0  0  0  0  0  0  0
   19.5429   19.5283   22.4087 C   0  0  0  0  0  0  0  0  0  0  0  0
   20.2710   19.8471   23.1644 H   0  0  0  0  0  0  0  0  0  0  0  0
   19.2271   20.4269   21.8647 H   0  0  0  0  0  0  0  0  0  0  0  0
   20.1943   18.5173   21.4344 C   0  0  0  0  0  0  0  0  0  0  0  0
   20.4975   17.6178   21.9883 H   0  0  0  0  0  0  0  0  0  0  0  0
   19.4534   18.1978   20.6883 H   0  0  0  0  0  0  0  0  0  0  0  0
   21.4196   19.1223   20.7203 C   0  0  0  0  0  0  0  0  0  0  0  0
   21.8674   18.3914   20.0344 H   0  0  0  0  0  0  0  0  0  0  0  0
   21.1359   20.0069   20.1349 H   0  0  0  0  0  0  0  0  0  0  0  0
   22.1880   19.4224   21.4449 H   0  0  0  0  0  0  0  0  0  0  0  0
  1  2  1  0  0  0  0
  1  3  2  0  0  0  0
  1  4  1  0  0  0  0
  4  5  1  0  0  0  0
  4  6  1  0  0  0  0
  4  7  1  0  0  0  0
  7  8  1  0  0  0  0
  7  9  1  0  0  0  0
  7 10  1  0  0  0  0
 10 11  1  0  0  0  0
 10 12  1  0  0  0  0
 10 13  1  0  0  0  0
M  END
> <VConfSearch Rank>
378

> <Conf_Id>
1

> <Delta U+W>
-1.339

> <U+W>
-59.672

> <U>
7.389

> <W>
-67.061

> <W(PB)>
-68.767

> <W(SA)>
1.707

> <Valence>
5.822

> <Coulomb>
1.255

> <VdW>
0.312

> <VdW6>
-3.061

> <VdW12>
3.372

> <Bond>
0.059

> <Angle>
2.241

> <Pdih>
3.522

> <Idih>
0.000

> <Tether>
0.000

$$$$
VeraChem MOL file


 13 12  0  0  0  0  0  0  0  0999 V2000     
   21.8186   18.9303   21.4124 C   0  0  0  0  0  0  0  0  0  0  0  0
   22.2192   19.9426   20.8732 O   0  5  0  0  0  0  0  0  0  0  0  0
   22.4955   18.2611   22.1674 O   0  0  0  0  0  0  0  0  0  0  0  0
   20.4023   18.4570   21.0948 C   0  0  0  0  0  0  0  0  0  0  0  0
   20.3102   17.4035   21.3861 H   0  0  0  0  0  0  0  0  0  0  0  0
   20.2810   18.4961   20.0057 H   0  0  0  0  0  0  0  0  0  0  0  0
   19.2867   19.2967   21.7682 C   0  0  0  0  0  0  0  0  0  0  0  0
   19.4128   20.3558   21.5031 H   0  0  0  0  0  0  0  0  0  0  0  0
   18.3115   18.9854   21.3693 H   0  0  0  0  0  0  0  0  0  0  0  0
   19.2760   19.1415   23.3031 C   0  0  0  0  0  0  0  0  0  0  0  0
   20.2221   19.4860   23.7412 H   0  0  0  0  0  0  0  0  0  0  0  0
   18.4635   19.7321   23.7460 H   0  0  0  0  0  0  0  0  0  0  0  0
   19.1287   18.0921   23.5904 H   0  0  0  0  0  0  0  0  0  0  0  0
  1  2  1  0  0  0  0
  1  3  2  0  0  0  0
  1  4  1  0  0  0  0
  4  5  1  0  0  0  0
  4  6  1  0  0  0  0
  4  7  1  0  0  0  0
  7  8  1  0  0  0  0
  7  9  1  0  0  0  0
  7 10  1  0  0  0  0
 10 11  1  0  0  0  0
 10 12  1  0  0  0  0
 10 13  1  0  0  0  0
M  END
> <VConfSearch Rank>
379

> <Conf_Id>
4

> <Delta U+W>
0.281

> <U+W>
-58.051

> <U>
9.781

> <W>
-67.832

> <W(PB)>
-69.535

> <W(SA)>
1.703

> <Valence>
6.123

> <Coulomb>
3.449

> <VdW>
0.209

> <VdW6>
-3.762

> <VdW12>
3.972

> <Bond>
0.078

> <Angle>
2.428

> <Pdih>
3.616

> <Idih>
0.002

> <Tether>
0.000

$$$$
VeraChem MOL file


 13 12  0  0  0  0  0  0  0  0999 V2000     
   18.4267   19.4297   22.3715 C   0  0  0  0  0  0  0  0  0  0  0  0
   18.3420   19.7518   23.5399 O   0  5  0  0  0  0  0  0  0  0  0  0
   17.8141   19.9809   21.4788 O   0  0  0  0  0  0  0  0  0  0  0  0
   19.3217   18.2476   22.0077 C   0  0  0  0  0  0  0  0  0  0  0  0
   18.7417   17.5882   21.3511 H   0  0  0  0  0  0  0  0  0  0  0  0
   19.5376   17.6766   22.9192 H   0  0  0  0  0  0  0  0  0  0  0  0
   20.6431   18.6457   21.3016 C   0  0  0  0  0  0  0  0  0  0  0  0
   21.1479   17.7379   20.9441 H   0  0  0  0  0  0  0  0  0  0  0  0
   20.4171   19.2520   20.4132 H   0  0  0  0  0  0  0  0  0  0  0  0
   21.5992   19.4207   22.2317 C   0  0  0  0  0  0  0  0  0  0  0  0
   21.8560   18.8234   23.1164 H   0  0  0  0  0  0  0  0  0  0  0  0
   22.5313   19.6697   21.7079 H   0  0  0  0  0  0  0  0  0  0  0  0
   21.1427   20.3590   22.5739 H   0  0  0  0  0  0  0  0  0  0  0  0
  1  2  1  0  0  0  0
  1  3  2  0  0  0  0
  1  4  1  0  0  0  0
  4  5  1  0  0  0  0
  4  6  1  0  0  0  0
  4  7  1  0  0  0  0
  7  8  1  0  0  0  0
  7  9  1  0  0  0  0
  7 10  1  0  0  0  0
 10 11  1  0  0  0  0
 10 12  1  0  0  0  0
 10 13  1  0  0  0  0
M  END
> <VConfSearch Rank>
380

> <Conf_Id>
36

> <Delta U+W>
0.272

> <U+W>
-58.060

> <U>
9.781

> <W>
-67.841

> <W(PB)>
-69.537

> <W(SA)>
1.696

> <Valence>
6.123

> <Coulomb>
3.449

> <VdW>
0.209

> <VdW6>
-3.762

> <VdW12>
3.972

> <Bond>
0.078

> <Angle>
2.428

> <Pdih>
3.616

> <Idih>
0.002

> <Tether>
0.000

$$$$
VeraChem MOL file


 13 12  0  0  0  0  0  0  0  0999 V2000     
   21.6275   19.4071   20.4766 C   0  0  0  0  0  0  0  0  0  0  0  0
   21.8222   18.2928   20.0319 O   0  5  0  0  0  0  0  0  0  0  0  0
   22.2711   20.3779   20.1332 O   0  0  0  0  0  0  0  0  0  0  0  0
   20.5289   19.6292   21.5180 C   0  0  0  0  0  0  0  0  0  0  0  0
   19.8418   20.3822   21.1139 H   0  0  0  0  0  0  0  0  0  0  0  0
   21.0015   20.0696   22.4040 H   0  0  0  0  0  0  0  0  0  0  0  0
   19.7336   18.3615   21.9257 C   0  0  0  0  0  0  0  0  0  0  0  0
   19.2633   17.9201   21.0360 H   0  0  0  0  0  0  0  0  0  0  0  0
   20.4244   17.6071   22.3275 H   0  0  0  0  0  0  0  0  0  0  0  0
   18.6513   18.6816   22.9763 C   0  0  0  0  0  0  0  0  0  0  0  0
   17.9293   19.4114   22.5869 H   0  0  0  0  0  0  0  0  0  0  0  0
   18.0997   17.7733   23.2521 H   0  0  0  0  0  0  0  0  0  0  0  0
   19.0998   19.0959   23.8888 H   0  0  0  0  0  0  0  0  0  0  0  0
  1  2  1  0  0  0  0
  1  3  2  0  0  0  0
  1  4  1  0  0  0  0
  4  5  1  0  0  0  0
  4  6  1  0  0  0  0
  4  7  1  0  0  0  0
  7  8  1  0  0  0  0
  7  9  1  0  0  0  0
  7 10  1  0  0  0  0
 10 11  1  0  0  0  0
 10 12  1  0  0  0  0
 10 13  1  0  0  0  0
M  END
> <VConfSearch Rank>
381

> <Conf_Id>
0

> <Delta U+W>
0.000

> <U+W>
-58.332

> <U>
8.390

> <W>
-66.722

> <W(PB)>
-68.455

> <W(SA)>
1.733

> <Valence>
6.333

> <Coulomb>
1.215

> <VdW>
0.842

> <VdW6>
-3.344

> <VdW12>
4.186

> <Bond>
0.091

> <Angle>
2.713

> <Pdih>
3.529

> <Idih>
0.000

> <Tether>
0.000

$$$$
VeraChem MOL file


 13 12  0  0  0  0  0  0  0  0999 V2000     
   18.0346   18.5460   22.4608 C   0  0  0  0  0  0  0  0  0  0  0  0
   17.9085   18.2555   23.6334 O   0  5  0  0  0  0  0  0  0  0  0  0
   17.2723   18.1738   21.5915 O   0  0  0  0  0  0  0  0  0  0  0  0
   19.2248   19.4089   22.0555 C   0  0  0  0  0  0  0  0  0  0  0  0
   19.4486   20.0926   22.8834 H   0  0  0  0  0  0  0  0  0  0  0  0
   18.9239   20.0253   21.1996 H   0  0  0  0  0  0  0  0  0  0  0  0
   20.4801   18.5770   21.6976 C   0  0  0  0  0  0  0  0  0  0  0  0
   20.7663   17.9566   22.5584 H   0  0  0  0  0  0  0  0  0  0  0  0
   20.2416   17.8894   20.8741 H   0  0  0  0  0  0  0  0  0  0  0  0
   21.6644   19.4776   21.2927 C   0  0  0  0  0  0  0  0  0  0  0  0
   22.5442   18.8704   21.0428 H   0  0  0  0  0  0  0  0  0  0  0  0
   21.4123   20.0867   20.4146 H   0  0  0  0  0  0  0  0  0  0  0  0
   21.9411   20.1544   22.1118 H   0  0  0  0  0  0  0  0  0  0  0  0
  1  2  1  0  0  0  0
  1  3  2  0  0  0  0
  1  4  1  0  0  0  0
  4  5  1  0  0  0  0
  4  6  1  0  0  0  0
  4  7  1  0  0  0  0
  7  8  1  0  0  0  0
  7  9  1  0  0  0  0
  7 10  1  0  0  0  0
 10 11  1  0  0  0  0
 10 12  1  0  0  0  0
 10 13  1  0  0  0  0
M  END
> <VConfSearch Rank>
382

> <Conf_Id>
1

> <Delta U+W>
-1.339

> <U+W>
-59.672

> <U>
7.389

> <W>
-67.061

> <W(PB)>
-68.767

> <W(SA)>
1.707

> <Valence>
5.822

> <Coulomb>
1.255

> <VdW>
0.312

> <VdW6>
-3.061

> <VdW12>
3.372

> <Bond>
0.059

> <Angle>
2.241

> <Pdih>
3.522

> <Idih>
0.000

> <Tether>
0.000

$$$$
VeraChem MOL file


 13 12  0  0  0  0  0  0  0  0999 V2000     
   19.0018   20.1427   21.2434 C   0  0  0  0  0  0  0  0  0  0  0  0
   17.9495   20.3221   21.8236 O   0  5  0  0  0  0  0  0  0  0  0  0
   19.6376   21.0351   20.7186 O   0  0  0  0  0  0  0  0  0  0  0  0
   19.5325   18.7151   21.1388 C   0  0  0  0  0  0  0  0  0  0  0  0
   20.2837   18.6770   20.3403 H   0  0  0  0  0  0  0  0  0  0  0  0
   18.6985   18.0788   20.8196 H   0  0  0  0  0  0  0  0  0  0  0  0
   20.1278   18.1611   22.4587 C   0  0  0  0  0  0  0  0  0  0  0  0
   19.3814   18.2420   23.2613 H   0  0  0  0  0  0  0  0  0  0  0  0
   20.3435   17.0910   22.3349 H   0  0  0  0  0  0  0  0  0  0  0  0
   21.4217   18.8910   22.8749 C   0  0  0  0  0  0  0  0  0  0  0  0
   21.2335   19.9584   23.0508 H   0  0  0  0  0  0  0  0  0  0  0  0
   21.8270   18.4622   23.8006 H   0  0  0  0  0  0  0  0  0  0  0  0
   22.1897   18.8035   22.0953 H   0  0  0  0  0  0  0  0  0  0  0  0
  1  2  1  0  0  0  0
  1  3  2  0  0  0  0
  1  4  1  0  0  0  0
  4  5  1  0  0  0  0
  4  6  1  0  0  0  0
  4  7  1  0  0  0  0
  7  8  1  0  0  0  0
  7  9  1  0  0  0  0
  7 10  1  0  0  0  0
 10 11  1  0  0  0  0
 10 12  1  0  0  0  0
 10 13  1  0  0  0  0
M  END
> <VConfSearch Rank>
383

> <Conf_Id>
4

> <Delta U+W>
0.281

> <U+W>
-58.051

> <U>
9.781

> <W>
-67.832

> <W(PB)>
-69.535

> <W(SA)>
1.703

> <Valence>
6.123

> <Coulomb>
3.449

> <VdW>
0.209

> <VdW6>
-3.762

> <VdW12>
3.972

> <Bond>
0.078

> <Angle>
2.428

> <Pdih>
3.616

> <Idih>
0.002

> <Tether>
0.000

$$$$
VeraChem MOL file


 13 12  0  0  0  0  0  0  0  0999 V2000     
   20.4909   20.1017   20.6605 C   0  0  0  0  0  0  0  0  0  0  0  0
   19.4771   20.6777   20.3192 O   0  5  0  0  0  0  0  0  0  0  0  0
   21.5818   20.6348   20.7031 O   0  0  0  0  0  0  0  0  0  0  0  0
   20.3982   18.6211   21.0209 C   0  0  0  0  0  0  0  0  0  0  0  0
   21.2022   18.1030   20.4846 H   0  0  0  0  0  0  0  0  0  0  0  0
   19.4519   18.2238   20.6336 H   0  0  0  0  0  0  0  0  0  0  0  0
   20.5188   18.3286   22.5385 C   0  0  0  0  0  0  0  0  0  0  0  0
   20.5936   17.2432   22.6910 H   0  0  0  0  0  0  0  0  0  0  0  0
   21.4500   18.7666   22.9245 H   0  0  0  0  0  0  0  0  0  0  0  0
   19.3171   18.8686   23.3412 C   0  0  0  0  0  0  0  0  0  0  0  0
   18.3772   18.4262   22.9859 H   0  0  0  0  0  0  0  0  0  0  0  0
   19.4242   18.6280   24.4069 H   0  0  0  0  0  0  0  0  0  0  0  0
   19.2380   19.9598   23.2472 H   0  0  0  0  0  0  0  0  0  0  0  0
  1  2  1  0  0  0  0
  1  3  2  0  0  0  0
  1  4  1  0  0  0  0
  4  5  1  0  0  0  0
  4  6  1  0  0  0  0
  4  7  1  0  0  0  0
  7  8  1  0  0  0  0
  7  9  1  0  0  0  0
  7 10  1  0  0  0  0
 10 11  1  0  0  0  0
 10 12  1  0  0  0  0
 10 13  1  0  0  0  0
M  END
> <VConfSearch Rank>
384

> <Conf_Id>
36

> <Delta U+W>
0.272

> <U+W>
-58.060

> <U>
9.781

> <W>
-67.841

> <W(PB)>
-69.537

> <W(SA)>
1.696

> <Valence>
6.123

> <Coulomb>
3.449

> <VdW>
0.209

> <VdW6>
-3.762

> <VdW12>
3.972

> <Bond>
0.078

> <Angle>
2.428

> <Pdih>
3.616

> <Idih>
0.002

> <Tether>
0.000

$$$$
VeraChem MOL file


 13 12  0  0  0  0  0  0  0  0999 V2000     
   18.4736   18.3106   23.1139 C   0  0  0  0  0  0  0  0  0  0  0  0
   17.6704   17.9128   22.2930 O   0  5  0  0  0  0  0  0  0  0  0  0
   18.2797   18.2521   24.3113 O   0  0  0  0  0  0  0  0  0  0  0  0
   19.7986   18.9182   22.6491 C   0  0  0  0  0  0  0  0  0  0  0  0
   20.6056   18.3349   23.1084 H   0  0  0  0  0  0  0  0  0  0  0  0
   19.8586   19.9309   23.0653 H   0  0  0  0  0  0  0  0  0  0  0  0
   20.0022   18.9720   21.1124 C   0  0  0  0  0  0  0  0  0  0  0  0
   19.9388   17.9565   20.6969 H   0  0  0  0  0  0  0  0  0  0  0  0
   19.1908   19.5544   20.6538 H   0  0  0  0  0  0  0  0  0  0  0  0
   21.3611   19.5981   20.7395 C   0  0  0  0  0  0  0  0  0  0  0  0
   22.1910   19.0155   21.1608 H   0  0  0  0  0  0  0  0  0  0  0  0
   21.4870   19.6276   19.6493 H   0  0  0  0  0  0  0  0  0  0  0  0
   21.4371   20.6261   21.1174 H   0  0  0  0  0  0  0  0  0  0  0  0
  1  2  1  0  0  0  0
  1  3  2  0  0  0  0
  1  4  1  0  0  0  0
  4  5  1  0  0  0  0
  4  6  1  0  0  0  0
  4  7  1  0  0  0  0
  7  8  1  0  0  0  0
  7  9  1  0  0  0  0
  7 10  1  0  0  0  0
 10 11  1  0  0  0  0
 10 12  1  0  0  0  0
 10 13  1  0  0  0  0
M  END
> <VConfSearch Rank>
385

> <Conf_Id>
0

> <Delta U+W>
0.000

> <U+W>
-58.332

> <U>
8.390

> <W>
-66.722

> <W(PB)>
-68.455

> <W(SA)>
1.733

> <Valence>
6.333

> <Coulomb>
1.215

> <VdW>
0.842

> <VdW6>
-3.344

> <VdW12>
4.186

> <Bond>
0.091

> <Angle>
2.713

> <Pdih>
3.529

> <Idih>
0.000

> <Tether>
0.000

$$$$
VeraChem MOL file


 13 12  0  0  0  0  0  0  0  0999 V2000     
   20.4276   17.1606   22.6909 C   0  0  0  0  0  0  0  0  0  0  0  0
   21.1038   16.4100   22.0165 O   0  5  0  0  0  0  0  0  0  0  0  0
   19.6697   16.7816   23.5611 O   0  0  0  0  0  0  0  0  0  0  0  0
   20.5210   18.6579   22.4174 C   0  0  0  0  0  0  0  0  0  0  0  0
   21.5436   18.8820   22.0901 H   0  0  0  0  0  0  0  0  0  0  0  0
   20.3609   19.1884   23.3639 H   0  0  0  0  0  0  0  0  0  0  0  0
   19.5038   19.1429   21.3563 C   0  0  0  0  0  0  0  0  0  0  0  0
   19.6671   18.5979   20.4160 H   0  0  0  0  0  0  0  0  0  0  0  0
   18.4842   18.9045   21.6902 H   0  0  0  0  0  0  0  0  0  0  0  0
   19.6238   20.6590   21.1028 C   0  0  0  0  0  0  0  0  0  0  0  0
   18.8953   20.9838   20.3484 H   0  0  0  0  0  0  0  0  0  0  0  0
   19.4349   21.2273   22.0231 H   0  0  0  0  0  0  0  0  0  0  0  0
   20.6268   20.9183   20.7392 H   0  0  0  0  0  0  0  0  0  0  0  0
  1  2  1  0  0  0  0
  1  3  2  0  0  0  0
  1  4  1  0  0  0  0
  4  5  1  0  0  0  0
  4  6  1  0  0  0  0
  4  7  1  0  0  0  0
  7  8  1  0  0  0  0
  7  9  1  0  0  0  0
  7 10  1  0  0  0  0
 10 11  1  0  0  0  0
 10 12  1  0  0  0  0
 10 13  1  0  0  0  0
M  END
> <VConfSearch Rank>
386

> <Conf_Id>
1

> <Delta U+W>
-1.339

> <U+W>
-59.672

> <U>
7.389

> <W>
-67.061

> <W(PB)>
-68.767

> <W(SA)>
1.707

> <Valence>
5.822

> <Coulomb>
1.255

> <VdW>
0.312

> <VdW6>
-3.061

> <VdW12>
3.372

> <Bond>
0.059

> <Angle>
2.241

> <Pdih>
3.522

> <Idih>
0.000

> <Tether>
0.000

$$$$
VeraChem MOL file


 13 12  0  0  0  0  0  0  0  0999 V2000     
   21.7143   19.7360   22.3059 C   0  0  0  0  0  0  0  0  0  0  0  0
   22.0491   20.6023   21.5225 O   0  5  0  0  0  0  0  0  0  0  0  0
   21.9074   19.8051   23.5033 O   0  0  0  0  0  0  0  0  0  0  0  0
   21.0485   18.4799   21.7494 C   0  0  0  0  0  0  0  0  0  0  0  0
   21.1036   17.6881   22.5066 H   0  0  0  0  0  0  0  0  0  0  0  0
   21.6478   18.1432   20.8951 H   0  0  0  0  0  0  0  0  0  0  0  0
   19.5795   18.6867   21.2991 C   0  0  0  0  0  0  0  0  0  0  0  0
   19.5301   19.5092   20.5719 H   0  0  0  0  0  0  0  0  0  0  0  0
   19.2322   17.7838   20.7785 H   0  0  0  0  0  0  0  0  0  0  0  0
   18.6350   18.9805   22.4830 C   0  0  0  0  0  0  0  0  0  0  0  0
   18.9269   19.9036   23.0011 H   0  0  0  0  0  0  0  0  0  0  0  0
   17.6017   19.1018   22.1325 H   0  0  0  0  0  0  0  0  0  0  0  0
   18.6522   18.1597   23.2119 H   0  0  0  0  0  0  0  0  0  0  0  0
  1  2  1  0  0  0  0
  1  3  2  0  0  0  0
  1  4  1  0  0  0  0
  4  5  1  0  0  0  0
  4  6  1  0  0  0  0
  4  7  1  0  0  0  0
  7  8  1  0  0  0  0
  7  9  1  0  0  0  0
  7 10  1  0  0  0  0
 10 11  1  0  0  0  0
 10 12  1  0  0  0  0
 10 13  1  0  0  0  0
M  END
> <VConfSearch Rank>
387

> <Conf_Id>
4

> <Delta U+W>
0.281

> <U+W>
-58.051

> <U>
9.781

> <W>
-67.832

> <W(PB)>
-69.535

> <W(SA)>
1.703

> <Valence>
6.123

> <Coulomb>
3.449

> <VdW>
0.209

> <VdW6>
-3.762

> <VdW12>
3.972

> <Bond>
0.078

> <Angle>
2.428

> <Pdih>
3.616

> <Idih>
0.002

> <Tether>
0.000

$$$$
VeraChem MOL file


 13 12  0  0  0  0  0  0  0  0999 V2000     
   18.5099   18.2005   22.1940 C   0  0  0  0  0  0  0  0  0  0  0  0
   17.7123   19.0233   22.5974 O   0  5  0  0  0  0  0  0  0  0  0  0
   18.2297   17.3352   21.3885 O   0  0  0  0  0  0  0  0  0  0  0  0
   19.9298   18.2309   22.7539 C   0  0  0  0  0  0  0  0  0  0  0  0
   20.1877   17.2063   23.0472 H   0  0  0  0  0  0  0  0  0  0  0  0
   19.9333   18.8332   23.6707 H   0  0  0  0  0  0  0  0  0  0  0  0
   20.9926   18.7655   21.7599 C   0  0  0  0  0  0  0  0  0  0  0  0
   21.9935   18.6117   22.1859 H   0  0  0  0  0  0  0  0  0  0  0  0
   20.9524   18.1819   20.8295 H   0  0  0  0  0  0  0  0  0  0  0  0
   20.8044   20.2637   21.4436 C   0  0  0  0  0  0  0  0  0  0  0  0
   20.8633   20.8682   22.3582 H   0  0  0  0  0  0  0  0  0  0  0  0
   21.5832   20.6143   20.7540 H   0  0  0  0  0  0  0  0  0  0  0  0
   19.8290   20.4485   20.9743 H   0  0  0  0  0  0  0  0  0  0  0  0
  1  2  1  0  0  0  0
  1  3  2  0  0  0  0
  1  4  1  0  0  0  0
  4  5  1  0  0  0  0
  4  6  1  0  0  0  0
  4  7  1  0  0  0  0
  7  8  1  0  0  0  0
  7  9  1  0  0  0  0
  7 10  1  0  0  0  0
 10 11  1  0  0  0  0
 10 12  1  0  0  0  0
 10 13  1  0  0  0  0
M  END
> <VConfSearch Rank>
388

> <Conf_Id>
36

> <Delta U+W>
0.272

> <U+W>
-58.060

> <U>
9.781

> <W>
-67.841

> <W(PB)>
-69.537

> <W(SA)>
1.696

> <Valence>
6.123

> <Coulomb>
3.449

> <VdW>
0.209

> <VdW6>
-3.762

> <VdW12>
3.972

> <Bond>
0.078

> <Angle>
2.428

> <Pdih>
3.616

> <Idih>
0.002

> <Tether>
0.000

$$$$
VeraChem MOL file


 13 12  0  0  0  0  0  0  0  0999 V2000     
   21.3120   19.8253   20.3358 C   0  0  0  0  0  0  0  0  0  0  0  0
   20.8758   19.2752   19.3436 O   0  5  0  0  0  0  0  0  0  0  0  0
   22.2406   20.6072   20.3042 O   0  0  0  0  0  0  0  0  0  0  0  0
   20.6842   19.5403   21.7016 C   0  0  0  0  0  0  0  0  0  0  0  0
   20.3511   20.4994   22.1157 H   0  0  0  0  0  0  0  0  0  0  0  0
   21.4805   19.1678   22.3570 H   0  0  0  0  0  0  0  0  0  0  0  0
   19.5021   18.5361   21.6931 C   0  0  0  0  0  0  0  0  0  0  0  0
   18.7065   18.9098   21.0335 H   0  0  0  0  0  0  0  0  0  0  0  0
   19.8373   17.5766   21.2750 H   0  0  0  0  0  0  0  0  0  0  0  0
   18.9352   18.3118   23.1094 C   0  0  0  0  0  0  0  0  0  0  0  0
   18.5644   19.2523   23.5377 H   0  0  0  0  0  0  0  0  0  0  0  0
   18.1005   17.5991   23.0832 H   0  0  0  0  0  0  0  0  0  0  0  0
   19.7043   17.9085   23.7812 H   0  0  0  0  0  0  0  0  0  0  0  0
  1  2  1  0  0  0  0
  1  3  2  0  0  0  0
  1  4  1  0  0  0  0
  4  5  1  0  0  0  0
  4  6  1  0  0  0  0
  4  7  1  0  0  0  0
  7  8  1  0  0  0  0
  7  9  1  0  0  0  0
  7 10  1  0  0  0  0
 10 11  1  0  0  0  0
 10 12  1  0  0  0  0
 10 13  1  0  0  0  0
M  END
> <VConfSearch Rank>
389

> <Conf_Id>
0

> <Delta U+W>
0.000

> <U+W>
-58.332

> <U>
8.390

> <W>
-66.722

> <W(PB)>
-68.455

> <W(SA)>
1.733

> <Valence>
6.333

> <Coulomb>
1.215

> <VdW>
0.842

> <VdW6>
-3.344

> <VdW12>
4.186

> <Bond>
0.091

> <Angle>
2.713

> <Pdih>
3.529

> <Idih>
0.000

> <Tether>
0.000

$$$$
VeraChem MOL file


 13 12  0  0  0  0  0  0  0  0999 V2000     
   19.9956   18.9203   19.7235 C   0  0  0  0  0  0  0  0  0  0  0  0
   18.9920   19.3138   19.1636 O   0  5  0  0  0  0  0  0  0  0  0  0
   20.7636   18.1151   19.2366 O   0  0  0  0  0  0  0  0  0  0  0  0
   20.2976   19.4517   21.1206 C   0  0  0  0  0  0  0  0  0  0  0  0
   19.9259   20.4818   21.1818 H   0  0  0  0  0  0  0  0  0  0  0  0
   21.3869   19.4933   21.2419 H   0  0  0  0  0  0  0  0  0  0  0  0
   19.6691   18.5911   22.2432 C   0  0  0  0  0  0  0  0  0  0  0  0
   18.5796   18.5484   22.1058 H   0  0  0  0  0  0  0  0  0  0  0  0
   20.0409   17.5598   22.1660 H   0  0  0  0  0  0  0  0  0  0  0  0
   19.9924   19.1541   23.6417 C   0  0  0  0  0  0  0  0  0  0  0  0
   19.5388   18.5312   24.4237 H   0  0  0  0  0  0  0  0  0  0  0  0
   21.0764   19.1787   23.8142 H   0  0  0  0  0  0  0  0  0  0  0  0
   19.6038   20.1749   23.7536 H   0  0  0  0  0  0  0  0  0  0  0  0
  1  2  1  0  0  0  0
  1  3  2  0  0  0  0
  1  4  1  0  0  0  0
  4  5  1  0  0  0  0
  4  6  1  0  0  0  0
  4  7  1  0  0  0  0
  7  8  1  0  0  0  0
  7  9  1  0  0  0  0
  7 10  1  0  0  0  0
 10 11  1  0  0  0  0
 10 12  1  0  0  0  0
 10 13  1  0  0  0  0
M  END
> <VConfSearch Rank>
390

> <Conf_Id>
1

> <Delta U+W>
-1.339

> <U+W>
-59.672

> <U>
7.389

> <W>
-67.061

> <W(PB)>
-68.767

> <W(SA)>
1.707

> <Valence>
5.822

> <Coulomb>
1.255

> <VdW>
0.312

> <VdW6>
-3.061

> <VdW12>
3.372

> <Bond>
0.059

> <Angle>
2.241

> <Pdih>
3.522

> <Idih>
0.000

> <Tether>
0.000

$$$$
VeraChem MOL file


 13 12  0  0  0  0  0  0  0  0999 V2000     
   18.5829   18.2324   21.4572 C   0  0  0  0  0  0  0  0  0  0  0  0
   17.7210   18.1179   22.3057 O   0  5  0  0  0  0  0  0  0  0  0  0
   18.3541   18.5618   20.3104 O   0  0  0  0  0  0  0  0  0  0  0  0
   20.0237   17.9101   21.8459 C   0  0  0  0  0  0  0  0  0  0  0  0
   20.6068   17.7488   20.9309 H   0  0  0  0  0  0  0  0  0  0  0  0
   20.0111   16.9558   22.3858 H   0  0  0  0  0  0  0  0  0  0  0  0
   20.7005   18.9917   22.7266 C   0  0  0  0  0  0  0  0  0  0  0  0
   20.0871   19.1752   23.6199 H   0  0  0  0  0  0  0  0  0  0  0  0
   21.6689   18.6129   23.0811 H   0  0  0  0  0  0  0  0  0  0  0  0
   20.9246   20.3158   21.9674 C   0  0  0  0  0  0  0  0  0  0  0  0
   19.9707   20.7470   21.6358 H   0  0  0  0  0  0  0  0  0  0  0  0
   21.4224   21.0519   22.6121 H   0  0  0  0  0  0  0  0  0  0  0  0
   21.5545   20.1588   21.0820 H   0  0  0  0  0  0  0  0  0  0  0  0
  1  2  1  0  0  0  0
  1  3  2  0  0  0  0
  1  4  1  0  0  0  0
  4  5  1  0  0  0  0
  4  6  1  0  0  0  0
  4  7  1  0  0  0  0
  7  8  1  0  0  0  0
  7  9  1  0  0  0  0
  7 10  1  0  0  0  0
 10 11  1  0  0  0  0
 10 12  1  0  0  0  0
 10 13  1  0  0  0  0
M  END
> <VConfSearch Rank>
391

> <Conf_Id>
4

> <Delta U+W>
0.281

> <U+W>
-58.051

> <U>
9.781

> <W>
-67.832

> <W(PB)>
-69.535

> <W(SA)>
1.703

> <Valence>
6.123

> <Coulomb>
3.449

> <VdW>
0.209

> <VdW6>
-3.762

> <VdW12>
3.972

> <Bond>
0.078

> <Angle>
2.428

> <Pdih>
3.616

> <Idih>
0.002

> <Tether>
0.000

$$$$
VeraChem MOL file


 13 12  0  0  0  0  0  0  0  0999 V2000     
   21.3763   19.8904   22.8764 C   0  0  0  0  0  0  0  0  0  0  0  0
   21.9297   20.6553   22.1118 O   0  5  0  0  0  0  0  0  0  0  0  0
   21.1261   20.1644   24.0333 O   0  0  0  0  0  0  0  0  0  0  0  0
   21.0070   18.4985   22.3697 C   0  0  0  0  0  0  0  0  0  0  0  0
   21.3565   17.7753   23.1162 H   0  0  0  0  0  0  0  0  0  0  0  0
   21.5685   18.2993   21.4487 H   0  0  0  0  0  0  0  0  0  0  0  0
   19.4898   18.2941   22.1249 C   0  0  0  0  0  0  0  0  0  0  0  0
   19.2995   17.2336   21.9108 H   0  0  0  0  0  0  0  0  0  0  0  0
   18.9336   18.5361   23.0413 H   0  0  0  0  0  0  0  0  0  0  0  0
   18.9607   19.1474   20.9536 C   0  0  0  0  0  0  0  0  0  0  0  0
   19.4886   18.9053   20.0219 H   0  0  0  0  0  0  0  0  0  0  0  0
   17.8900   18.9646   20.7947 H   0  0  0  0  0  0  0  0  0  0  0  0
   19.0948   20.2188   21.1537 H   0  0  0  0  0  0  0  0  0  0  0  0
  1  2  1  0  0  0  0
  1  3  2  0  0  0  0
  1  4  1  0  0  0  0
  4  5  1  0  0  0  0
  4  6  1  0  0  0  0
  4  7  1  0  0  0  0
  7  8  1  0  0  0  0
  7  9  1  0  0  0  0
  7 10  1  0  0  0  0
 10 11  1  0  0  0  0
 10 12  1  0  0  0  0
 10 13  1  0  0  0  0
M  END
> <VConfSearch Rank>
392

> <Conf_Id>
36

> <Delta U+W>
0.272

> <U+W>
-58.060

> <U>
9.781

> <W>
-67.841

> <W(PB)>
-69.537

> <W(SA)>
1.696

> <Valence>
6.123

> <Coulomb>
3.449

> <VdW>
0.209

> <VdW6>
-3.762

> <VdW12>
3.972

> <Bond>
0.078

> <Angle>
2.428

> <Pdih>
3.616

> <Idih>
0.002

> <Tether>
0.000

$$$$
VeraChem MOL file


 13 12  0  0  0  0  0  0  0  0999 V2000     
   20.2514   17.1931   20.7128 C   0  0  0  0  0  0  0  0  0  0  0  0
   19.5538   17.4424   19.7492 O   0  5  0  0  0  0  0  0  0  0  0  0
   20.8467   16.1428   20.8443 O   0  0  0  0  0  0  0  0  0  0  0  0
   20.4067   18.2290   21.8279 C   0  0  0  0  0  0  0  0  0  0  0  0
   21.4774   18.4417   21.9309 H   0  0  0  0  0  0  0  0  0  0  0  0
   20.0829   17.7556   22.7625 H   0  0  0  0  0  0  0  0  0  0  0  0
   19.6287   19.5542   21.6168 C   0  0  0  0  0  0  0  0  0  0  0  0
   19.9524   20.0256   20.6783 H   0  0  0  0  0  0  0  0  0  0  0  0
   18.5563   19.3386   21.5109 H   0  0  0  0  0  0  0  0  0  0  0  0
   19.8446   20.5341   22.7877 C   0  0  0  0  0  0  0  0  0  0  0  0
   20.9069   20.7901   22.8950 H   0  0  0  0  0  0  0  0  0  0  0  0
   19.2870   21.4649   22.6206 H   0  0  0  0  0  0  0  0  0  0  0  0
   19.4996   20.0975   23.7342 H   0  0  0  0  0  0  0  0  0  0  0  0
  1  2  1  0  0  0  0
  1  3  2  0  0  0  0
  1  4  1  0  0  0  0
  4  5  1  0  0  0  0
  4  6  1  0  0  0  0
  4  7  1  0  0  0  0
  7  8  1  0  0  0  0
  7  9  1  0  0  0  0
  7 10  1  0  0  0  0
 10 11  1  0  0  0  0
 10 12  1  0  0  0  0
 10 13  1  0  0  0  0
M  END
> <VConfSearch Rank>
393

> <Conf_Id>
0

> <Delta U+W>
0.000

> <U+W>
-58.332

> <U>
8.390

> <W>
-66.722

> <W(PB)>
-68.455

> <W(SA)>
1.733

> <Valence>
6.333

> <Coulomb>
1.215

> <VdW>
0.842

> <VdW6>
-3.344

> <VdW12>
4.186

> <Bond>
0.091

> <Angle>
2.713

> <Pdih>
3.529

> <Idih>
0.000

> <Tether>
0.000

$$$$
VeraChem MOL file


 13 12  0  0  0  0  0  0  0  0999 V2000     
   19.6215   17.0724   21.1574 C   0  0  0  0  0  0  0  0  0  0  0  0
   19.8951   16.1811   21.9360 O   0  5  0  0  0  0  0  0  0  0  0  0
   19.5757   16.9208   19.9531 O   0  0  0  0  0  0  0  0  0  0  0  0
   19.3385   18.4608   21.7210 C   0  0  0  0  0  0  0  0  0  0  0  0
   18.8681   18.3407   22.7045 H   0  0  0  0  0  0  0  0  0  0  0  0
   18.6047   18.9507   21.0693 H   0  0  0  0  0  0  0  0  0  0  0  0
   20.6105   19.3345   21.8420 C   0  0  0  0  0  0  0  0  0  0  0  0
   21.3418   18.8296   22.4885 H   0  0  0  0  0  0  0  0  0  0  0  0
   21.0782   19.4398   20.8530 H   0  0  0  0  0  0  0  0  0  0  0  0
   20.2911   20.7302   22.4142 C   0  0  0  0  0  0  0  0  0  0  0  0
   21.2044   21.3343   22.4924 H   0  0  0  0  0  0  0  0  0  0  0  0
   19.5838   21.2670   21.7683 H   0  0  0  0  0  0  0  0  0  0  0  0
   19.8494   20.6521   23.4164 H   0  0  0  0  0  0  0  0  0  0  0  0
  1  2  1  0  0  0  0
  1  3  2  0  0  0  0
  1  4  1  0  0  0  0
  4  5  1  0  0  0  0
  4  6  1  0  0  0  0
  4  7  1  0  0  0  0
  7  8  1  0  0  0  0
  7  9  1  0  0  0  0
  7 10  1  0  0  0  0
 10 11  1  0  0  0  0
 10 12  1  0  0  0  0
 10 13  1  0  0  0  0
M  END
> <VConfSearch Rank>
394

> <Conf_Id>
1

> <Delta U+W>
-1.339

> <U+W>
-59.672

> <U>
7.389

> <W>
-67.061

> <W(PB)>
-68.767

> <W(SA)>
1.707

> <Valence>
5.822

> <Coulomb>
1.255

> <VdW>
0.312

> <VdW6>
-3.061

> <VdW12>
3.372

> <Bond>
0.059

> <Angle>
2.241

> <Pdih>
3.522

> <Idih>
0.000

> <Tether>
0.000

$$$$
VeraChem MOL file


 13 12  0  0  0  0  0  0  0  0999 V2000     
   21.3410   19.1658   23.2983 C   0  0  0  0  0  0  0  0  0  0  0  0
   21.9622   18.1675   23.6043 O   0  5  0  0  0  0  0  0  0  0  0  0
   21.8426   20.2697   23.2224 O   0  0  0  0  0  0  0  0  0  0  0  0
   19.8441   19.0290   23.0308 C   0  0  0  0  0  0  0  0  0  0  0  0
   19.3845   20.0233   23.0884 H   0  0  0  0  0  0  0  0  0  0  0  0
   19.4186   18.4356   23.8489 H   0  0  0  0  0  0  0  0  0  0  0  0
   19.5003   18.3595   21.6755 C   0  0  0  0  0  0  0  0  0  0  0  0
   19.9991   17.3823   21.6110 H   0  0  0  0  0  0  0  0  0  0  0  0
   18.4198   18.1657   21.6337 H   0  0  0  0  0  0  0  0  0  0  0  0
   19.9030   19.2308   20.4677 C   0  0  0  0  0  0  0  0  0  0  0  0
   20.9866   19.4082   20.4529 H   0  0  0  0  0  0  0  0  0  0  0  0
   19.6284   18.7376   19.5262 H   0  0  0  0  0  0  0  0  0  0  0  0
   19.3978   20.2050   20.5008 H   0  0  0  0  0  0  0  0  0  0  0  0
  1  2  1  0  0  0  0
  1  3  2  0  0  0  0
  1  4  1  0  0  0  0
  4  5  1  0  0  0  0
  4  6  1  0  0  0  0
  4  7  1  0  0  0  0
  7  8  1  0  0  0  0
  7  9  1  0  0  0  0
  7 10  1  0  0  0  0
 10 11  1  0  0  0  0
 10 12  1  0  0  0  0
 10 13  1  0  0  0  0
M  END
> <VConfSearch Rank>
395

> <Conf_Id>
4

> <Delta U+W>
0.281

> <U+W>
-58.051

> <U>
9.781

> <W>
-67.832

> <W(PB)>
-69.535

> <W(SA)>
1.703

> <Valence>
6.123

> <Coulomb>
3.449

> <VdW>
0.209

> <VdW6>
-3.762

> <VdW12>
3.972

> <Bond>
0.078

> <Angle>
2.428

> <Pdih>
3.616

> <Idih>
0.002

> <Tether>
0.000

$$$$
VeraChem MOL file


 13 12  0  0  0  0  0  0  0  0999 V2000     
   19.3509   19.5544   20.4867 C   0  0  0  0  0  0  0  0  0  0  0  0
   18.1557   19.6854   20.6606 O   0  5  0  0  0  0  0  0  0  0  0  0
   20.0165   20.3140   19.8113 O   0  0  0  0  0  0  0  0  0  0  0  0
   20.0491   18.3533   21.1197 C   0  0  0  0  0  0  0  0  0  0  0  0
   20.6630   17.8844   20.3414 H   0  0  0  0  0  0  0  0  0  0  0  0
   19.2889   17.6175   21.4095 H   0  0  0  0  0  0  0  0  0  0  0  0
   20.9415   18.7069   22.3370 C   0  0  0  0  0  0  0  0  0  0  0  0
   21.5170   17.8186   22.6315 H   0  0  0  0  0  0  0  0  0  0  0  0
   21.6723   19.4746   22.0466 H   0  0  0  0  0  0  0  0  0  0  0  0
   20.1212   19.1997   23.5470 C   0  0  0  0  0  0  0  0  0  0  0  0
   19.3989   18.4377   23.8680 H   0  0  0  0  0  0  0  0  0  0  0  0
   20.7801   19.4221   24.3964 H   0  0  0  0  0  0  0  0  0  0  0  0
   19.5659   20.1146   23.3012 H   0  0  0  0  0  0  0  0  0  0  0  0
  1  2  1  0  0  0  0
  1  3  2  0  0  0  0
  1  4  1  0  0  0  0
  4  5  1  0  0  0  0
  4  6  1  0  0  0  0
  4  7  1  0  0  0  0
  7  8  1  0  0  0  0
  7  9  1  0  0  0  0
  7 10  1  0  0  0  0
 10 11  1  0  0  0  0
 10 12  1  0  0  0  0
 10 13  1  0  0  0  0
M  END
> <VConfSearch Rank>
396

> <Conf_Id>
36

> <Delta U+W>
0.272

> <U+W>
-58.060

> <U>
9.781

> <W>
-67.841

> <W(PB)>
-69.537

> <W(SA)>
1.696

> <Valence>
6.123

> <Coulomb>
3.449

> <VdW>
0.209

> <VdW6>
-3.762

> <VdW12>
3.972

> <Bond>
0.078

> <Angle>
2.428

> <Pdih>
3.616

> <Idih>
0.002

> <Tether>
0.000

$$$$
VeraChem MOL file


 13 12  0  0  0  0  0  0  0  0999 V2000     
   19.9108   21.1303   21.8099 C   0  0  0  0  0  0  0  0  0  0  0  0
   19.6522   21.3375   22.9793 O   0  5  0  0  0  0  0  0  0  0  0  0
   20.0359   22.0197   20.9925 O   0  0  0  0  0  0  0  0  0  0  0  0
   20.0927   19.6944   21.3140 C   0  0  0  0  0  0  0  0  0  0  0  0
   21.0925   19.6256   20.8690 H   0  0  0  0  0  0  0  0  0  0  0  0
   19.3703   19.5332   20.5049 H   0  0  0  0  0  0  0  0  0  0  0  0
   19.9237   18.5925   22.3925 C   0  0  0  0  0  0  0  0  0  0  0  0
   20.6465   18.7576   23.2037 H   0  0  0  0  0  0  0  0  0  0  0  0
   18.9223   18.6652   22.8392 H   0  0  0  0  0  0  0  0  0  0  0  0
   20.1242   17.1822   21.8020 C   0  0  0  0  0  0  0  0  0  0  0  0
   21.1304   17.0739   21.3762 H   0  0  0  0  0  0  0  0  0  0  0  0
   20.0009   16.4167   22.5792 H   0  0  0  0  0  0  0  0  0  0  0  0
   19.3923   16.9807   21.0087 H   0  0  0  0  0  0  0  0  0  0  0  0
  1  2  1  0  0  0  0
  1  3  2  0  0  0  0
  1  4  1  0  0  0  0
  4  5  1  0  0  0  0
  4  6  1  0  0  0  0
  4  7  1  0  0  0  0
  7  8  1  0  0  0  0
  7  9  1  0  0  0  0
  7 10  1  0  0  0  0
 10 11  1  0  0  0  0
 10 12  1  0  0  0  0
 10 13  1  0  0  0  0
M  END
> <VConfSearch Rank>
397

> <Conf_Id>
0

> <Delta U+W>
0.000

> <U+W>
-58.332

> <U>
8.390

> <W>
-66.722

> <W(PB)>
-68.455

> <W(SA)>
1.733

> <Valence>
6.333

> <Coulomb>
1.215

> <VdW>
0.842

> <VdW6>
-3.344

> <VdW12>
4.186

> <Bond>
0.091

> <Angle>
2.713

> <Pdih>
3.529

> <Idih>
0.000

> <Tether>
0.000

$$$$
VeraChem MOL file


 13 12  0  0  0  0  0  0  0  0999 V2000     
   18.1288   18.0644   21.6146 C   0  0  0  0  0  0  0  0  0  0  0  0
   17.8605   17.2323   22.4578 O   0  5  0  0  0  0  0  0  0  0  0  0
   17.6535   18.0644   20.4968 O   0  0  0  0  0  0  0  0  0  0  0  0
   19.1307   19.1569   21.9725 C   0  0  0  0  0  0  0  0  0  0  0  0
   19.0257   19.3797   23.0413 H   0  0  0  0  0  0  0  0  0  0  0  0
   18.8549   20.0659   21.4242 H   0  0  0  0  0  0  0  0  0  0  0  0
   20.5931   18.7643   21.6514 C   0  0  0  0  0  0  0  0  0  0  0  0
   20.8549   17.8475   22.1981 H   0  0  0  0  0  0  0  0  0  0  0  0
   20.6841   18.5341   20.5806 H   0  0  0  0  0  0  0  0  0  0  0  0
   21.5801   19.8885   22.0244 C   0  0  0  0  0  0  0  0  0  0  0  0
   22.6108   19.5919   21.7896 H   0  0  0  0  0  0  0  0  0  0  0  0
   21.3568   20.8080   21.4674 H   0  0  0  0  0  0  0  0  0  0  0  0
   21.5289   20.1162   23.0973 H   0  0  0  0  0  0  0  0  0  0  0  0
  1  2  1  0  0  0  0
  1  3  2  0  0  0  0
  1  4  1  0  0  0  0
  4  5  1  0  0  0  0
  4  6  1  0  0  0  0
  4  7  1  0  0  0  0
  7  8  1  0  0  0  0
  7  9  1  0  0  0  0
  7 10  1  0  0  0  0
 10 11  1  0  0  0  0
 10 12  1  0  0  0  0
 10 13  1  0  0  0  0
M  END
> <VConfSearch Rank>
398

> <Conf_Id>
1

> <Delta U+W>
-1.339

> <U+W>
-59.672

> <U>
7.389

> <W>
-67.061

> <W(PB)>
-68.767

> <W(SA)>
1.707

> <Valence>
5.822

> <Coulomb>
1.255

> <VdW>
0.312

> <VdW6>
-3.061

> <VdW12>
3.372

> <Bond>
0.059

> <Angle>
2.241

> <Pdih>
3.522

> <Idih>
0.000

> <Tether>
0.000

$$$$
VeraChem MOL file


 13 12  0  0  0  0  0  0  0  0999 V2000     
   19.9961   20.6189   21.3131 C   0  0  0  0  0  0  0  0  0  0  0  0
   18.9161   20.9189   20.8443 O   0  5  0  0  0  0  0  0  0  0  0  0
   20.6793   21.3839   21.9641 O   0  0  0  0  0  0  0  0  0  0  0  0
   20.5366   19.2179   21.0379 C   0  0  0  0  0  0  0  0  0  0  0  0
   21.6150   19.2116   21.2385 H   0  0  0  0  0  0  0  0  0  0  0  0
   20.4129   19.0244   19.9657 H   0  0  0  0  0  0  0  0  0  0  0  0
   19.8363   18.0970   21.8482 C   0  0  0  0  0  0  0  0  0  0  0  0
   18.7522   18.1385   21.6722 H   0  0  0  0  0  0  0  0  0  0  0  0
   20.1785   17.1198   21.4808 H   0  0  0  0  0  0  0  0  0  0  0  0
   20.1227   18.1951   23.3609 C   0  0  0  0  0  0  0  0  0  0  0  0
   19.7527   19.1438   23.7719 H   0  0  0  0  0  0  0  0  0  0  0  0
   19.6293   17.3771   23.9019 H   0  0  0  0  0  0  0  0  0  0  0  0
   21.2004   18.1333   23.5611 H   0  0  0  0  0  0  0  0  0  0  0  0
  1  2  1  0  0  0  0
  1  3  2  0  0  0  0
  1  4  1  0  0  0  0
  4  5  1  0  0  0  0
  4  6  1  0  0  0  0
  4  7  1  0  0  0  0
  7  8  1  0  0  0  0
  7  9  1  0  0  0  0
  7 10  1  0  0  0  0
 10 11  1  0  0  0  0
 10 12  1  0  0  0  0
 10 13  1  0  0  0  0
M  END
> <VConfSearch Rank>
399

> <Conf_Id>
4

> <Delta U+W>
0.281

> <U+W>
-58.051

> <U>
9.781

> <W>
-67.832

> <W(PB)>
-69.535

> <W(SA)>
1.703

> <Valence>
6.123

> <Coulomb>
3.449

> <VdW>
0.209

> <VdW6>
-3.762

> <VdW12>
3.972

> <Bond>
0.078

> <Angle>
2.428

> <Pdih>
3.616

> <Idih>
0.002

> <Tether>
0.000

$$$$
VeraChem MOL file


 13 12  0  0  0  0  0  0  0  0999 V2000     
   18.4243   18.9507   22.5842 C   0  0  0  0  0  0  0  0  0  0  0  0
   17.6641   18.9774   21.6370 O   0  5  0  0  0  0  0  0  0  0  0  0
   18.2161   18.3047   23.5919 O   0  0  0  0  0  0  0  0  0  0  0  0
   19.6909   19.8008   22.5223 C   0  0  0  0  0  0  0  0  0  0  0  0
   19.7587   20.3556   23.4657 H   0  0  0  0  0  0  0  0  0  0  0  0
   19.5760   20.5451   21.7247 H   0  0  0  0  0  0  0  0  0  0  0  0
   20.9923   18.9859   22.3087 C   0  0  0  0  0  0  0  0  0  0  0  0
   21.8577   19.6521   22.4277 H   0  0  0  0  0  0  0  0  0  0  0  0
   21.0765   18.2164   23.0888 H   0  0  0  0  0  0  0  0  0  0  0  0
   21.0530   18.3249   20.9161 C   0  0  0  0  0  0  0  0  0  0  0  0
   20.9927   19.0793   20.1207 H   0  0  0  0  0  0  0  0  0  0  0  0
   21.9938   17.7733   20.7904 H   0  0  0  0  0  0  0  0  0  0  0  0
   20.2250   17.6169   20.7788 H   0  0  0  0  0  0  0  0  0  0  0  0
  1  2  1  0  0  0  0
  1  3  2  0  0  0  0
  1  4  1  0  0  0  0
  4  5  1  0  0  0  0
  4  6  1  0  0  0  0
  4  7  1  0  0  0  0
  7  8  1  0  0  0  0
  7  9  1  0  0  0  0
  7 10  1  0  0  0  0
 10 11  1  0  0  0  0
 10 12  1  0  0  0  0
 10 13  1  0  0  0  0
M  END
> <VConfSearch Rank>
400

> <Conf_Id>
36

> <Delta U+W>
0.272

> <U+W>
-58.060

> <U>
9.781

> <W>
-67.841

> <W(PB)>
-69.537

> <W(SA)>
1.696

> <Valence>
6.123

> <Coulomb>
3.449

> <VdW>
0.209

> <VdW6>
-3.762

> <VdW12>
3.972

> <Bond>
0.078

> <Angle>
2.428

> <Pdih>
3.616

> <Idih>
0.002

> <Tether>
0.000

$$$$
VeraChem MOL file


 13 12  0  0  0  0  0  0  0  0999 V2000     
   21.1934   20.6123   21.0594 C   0  0  0  0  0  0  0  0  0  0  0  0
   21.6629   20.0871   20.0689 O   0  5  0  0  0  0  0  0  0  0  0  0
   21.4356   21.7589   21.3778 O   0  0  0  0  0  0  0  0  0  0  0  0
   20.2512   19.8190   21.9669 C   0  0  0  0  0  0  0  0  0  0  0  0
   19.3078   20.3747   22.0257 H   0  0  0  0  0  0  0  0  0  0  0  0
   20.6870   19.8204   22.9731 H   0  0  0  0  0  0  0  0  0  0  0  0
   19.9711   18.3600   21.5209 C   0  0  0  0  0  0  0  0  0  0  0  0
   19.5372   18.3607   20.5112 H   0  0  0  0  0  0  0  0  0  0  0  0
   20.9180   17.8056   21.4596 H   0  0  0  0  0  0  0  0  0  0  0  0
   19.0143   17.6410   22.4932 C   0  0  0  0  0  0  0  0  0  0  0  0
   18.0479   18.1591   22.5484 H   0  0  0  0  0  0  0  0  0  0  0  0
   18.8283   16.6111   22.1615 H   0  0  0  0  0  0  0  0  0  0  0  0
   19.4398   17.5997   23.5045 H   0  0  0  0  0  0  0  0  0  0  0  0
  1  2  1  0  0  0  0
  1  3  2  0  0  0  0
  1  4  1  0  0  0  0
  4  5  1  0  0  0  0
  4  6  1  0  0  0  0
  4  7  1  0  0  0  0
  7  8  1  0  0  0  0
  7  9  1  0  0  0  0
  7 10  1  0  0  0  0
 10 11  1  0  0  0  0
 10 12  1  0  0  0  0
 10 13  1  0  0  0  0
M  END
> <VConfSearch Rank>
401

> <Conf_Id>
0

> <Delta U+W>
0.000

> <U+W>
-58.332

> <U>
8.390

> <W>
-66.722

> <W(PB)>
-68.455

> <W(SA)>
1.733

> <Valence>
6.333

> <Coulomb>
1.215

> <VdW>
0.842

> <VdW6>
-3.344

> <VdW12>
4.186

> <Bond>
0.091

> <Angle>
2.713

> <Pdih>
3.529

> <Idih>
0.000

> <Tether>
0.000

$$$$
VeraChem MOL file


 13 12  0  0  0  0  0  0  0  0999 V2000     
   18.1958   19.7253   22.7110 C   0  0  0  0  0  0  0  0  0  0  0  0
   17.7032   20.7181   22.2139 O   0  5  0  0  0  0  0  0  0  0  0  0
   17.9983   19.3813   23.8591 O   0  0  0  0  0  0  0  0  0  0  0  0
   19.1271   18.8754   21.8533 C   0  0  0  0  0  0  0  0  0  0  0  0
   18.7815   18.9329   20.8140 H   0  0  0  0  0  0  0  0  0  0  0  0
   19.0248   17.8305   22.1707 H   0  0  0  0  0  0  0  0  0  0  0  0
   20.6073   19.3182   21.9477 C   0  0  0  0  0  0  0  0  0  0  0  0
   20.6961   20.3687   21.6370 H   0  0  0  0  0  0  0  0  0  0  0  0
   20.9395   19.2659   22.9939 H   0  0  0  0  0  0  0  0  0  0  0  0
   21.5219   18.4403   21.0701 C   0  0  0  0  0  0  0  0  0  0  0  0
   22.5663   18.7693   21.1501 H   0  0  0  0  0  0  0  0  0  0  0  0
   21.4730   17.3885   21.3813 H   0  0  0  0  0  0  0  0  0  0  0  0
   21.2278   18.4998   20.0139 H   0  0  0  0  0  0  0  0  0  0  0  0
  1  2  1  0  0  0  0
  1  3  2  0  0  0  0
  1  4  1  0  0  0  0
  4  5  1  0  0  0  0
  4  6  1  0  0  0  0
  4  7  1  0  0  0  0
  7  8  1  0  0  0  0
  7  9  1  0  0  0  0
  7 10  1  0  0  0  0
 10 11  1  0  0  0  0
 10 12  1  0  0  0  0
 10 13  1  0  0  0  0
M  END
> <VConfSearch Rank>
402

> <Conf_Id>
1

> <Delta U+W>
-1.339

> <U+W>
-59.672

> <U>
7.389

> <W>
-67.061

> <W(PB)>
-68.767

> <W(SA)>
1.707

> <Valence>
5.822

> <Coulomb>
1.255

> <VdW>
0.312

> <VdW6>
-3.061

> <VdW12>
3.372

> <Bond>
0.059

> <Angle>
2.241

> <Pdih>
3.522

> <Idih>
0.000

> <Tether>
0.000

$$$$
VeraChem MOL file


 13 12  0  0  0  0  0  0  0  0999 V2000     
   19.0429   20.2627   22.5989 C   0  0  0  0  0  0  0  0  0  0  0  0
   18.0066   20.4200   21.9845 O   0  5  0  0  0  0  0  0  0  0  0  0
   19.1201   20.3281   23.8095 O   0  0  0  0  0  0  0  0  0  0  0  0
   20.3200   20.0050   21.8031 C   0  0  0  0  0  0  0  0  0  0  0  0
   21.1833   20.2045   22.4498 H   0  0  0  0  0  0  0  0  0  0  0  0
   20.3546   20.7426   20.9924 H   0  0  0  0  0  0  0  0  0  0  0  0
   20.4187   18.5777   21.2060 C   0  0  0  0  0  0  0  0  0  0  0  0
   19.5293   18.3730   20.5936 H   0  0  0  0  0  0  0  0  0  0  0  0
   21.2844   18.5288   20.5316 H   0  0  0  0  0  0  0  0  0  0  0  0
   20.5642   17.4921   22.2924 C   0  0  0  0  0  0  0  0  0  0  0  0
   19.6926   17.4827   22.9602 H   0  0  0  0  0  0  0  0  0  0  0  0
   20.6512   16.4975   21.8361 H   0  0  0  0  0  0  0  0  0  0  0  0
   21.4603   17.6654   22.9027 H   0  0  0  0  0  0  0  0  0  0  0  0
  1  2  1  0  0  0  0
  1  3  2  0  0  0  0
  1  4  1  0  0  0  0
  4  5  1  0  0  0  0
  4  6  1  0  0  0  0
  4  7  1  0  0  0  0
  7  8  1  0  0  0  0
  7  9  1  0  0  0  0
  7 10  1  0  0  0  0
 10 11  1  0  0  0  0
 10 12  1  0  0  0  0
 10 13  1  0  0  0  0
M  END
> <VConfSearch Rank>
403

> <Conf_Id>
4

> <Delta U+W>
0.281

> <U+W>
-58.051

> <U>
9.781

> <W>
-67.832

> <W(PB)>
-69.535

> <W(SA)>
1.703

> <Valence>
6.123

> <Coulomb>
3.449

> <VdW>
0.209

> <VdW6>
-3.762

> <VdW12>
3.972

> <Bond>
0.078

> <Angle>
2.428

> <Pdih>
3.616

> <Idih>
0.002

> <Tether>
0.000

$$$$
VeraChem MOL file


 13 12  0  0  0  0  0  0  0  0999 V2000     
   20.9579   17.8020   20.9270 C   0  0  0  0  0  0  0  0  0  0  0  0
   22.1460   17.8002   21.1806 O   0  5  0  0  0  0  0  0  0  0  0  0
   20.3342   16.8013   20.6343 O   0  0  0  0  0  0  0  0  0  0  0  0
   20.2148   19.1355   20.9413 C   0  0  0  0  0  0  0  0  0  0  0  0
   19.6292   19.1934   20.0160 H   0  0  0  0  0  0  0  0  0  0  0  0
   20.9504   19.9482   20.9019 H   0  0  0  0  0  0  0  0  0  0  0  0
   19.2745   19.3250   22.1592 C   0  0  0  0  0  0  0  0  0  0  0  0
   18.6735   20.2328   22.0120 H   0  0  0  0  0  0  0  0  0  0  0  0
   18.5686   18.4844   22.2131 H   0  0  0  0  0  0  0  0  0  0  0  0
   20.0474   19.4425   23.4891 C   0  0  0  0  0  0  0  0  0  0  0  0
   20.7435   20.2912   23.4648 H   0  0  0  0  0  0  0  0  0  0  0  0
   19.3547   19.5953   24.3269 H   0  0  0  0  0  0  0  0  0  0  0  0
   20.6264   18.5315   23.6909 H   0  0  0  0  0  0  0  0  0  0  0  0
  1  2  1  0  0  0  0
  1  3  2  0  0  0  0
  1  4  1  0  0  0  0
  4  5  1  0  0  0  0
  4  6  1  0  0  0  0
  4  7  1  0  0  0  0
  7  8  1  0  0  0  0
  7  9  1  0  0  0  0
  7 10  1  0  0  0  0
 10 11  1  0  0  0  0
 10 12  1  0  0  0  0
 10 13  1  0  0  0  0
M  END
> <VConfSearch Rank>
404

> <Conf_Id>
36

> <Delta U+W>
0.272

> <U+W>
-58.060

> <U>
9.781

> <W>
-67.841

> <W(PB)>
-69.537

> <W(SA)>
1.696

> <Valence>
6.123

> <Coulomb>
3.449

> <VdW>
0.209

> <VdW6>
-3.762

> <VdW12>
3.972

> <Bond>
0.078

> <Angle>
2.428

> <Pdih>
3.616

> <Idih>
0.002

> <Tether>
0.000

$$$$
VeraChem MOL file


 13 12  0  0  0  0  0  0  0  0999 V2000     
   17.9539   18.5300   22.0361 C   0  0  0  0  0  0  0  0  0  0  0  0
   17.4892   19.1826   21.1220 O   0  5  0  0  0  0  0  0  0  0  0  0
   17.2727   17.8486   22.7753 O   0  0  0  0  0  0  0  0  0  0  0  0
   19.4620   18.5472   22.2931 C   0  0  0  0  0  0  0  0  0  0  0  0
   19.8151   17.5104   22.2410 H   0  0  0  0  0  0  0  0  0  0  0  0
   19.6148   18.8861   23.3246 H   0  0  0  0  0  0  0  0  0  0  0  0
   20.2911   19.4307   21.3246 C   0  0  0  0  0  0  0  0  0  0  0  0
   20.1342   19.0912   20.2912 H   0  0  0  0  0  0  0  0  0  0  0  0
   19.9337   20.4686   21.3760 H   0  0  0  0  0  0  0  0  0  0  0  0
   21.7956   19.3859   21.6596 C   0  0  0  0  0  0  0  0  0  0  0  0
   22.1845   18.3618   21.5848 H   0  0  0  0  0  0  0  0  0  0  0  0
   22.3653   20.0164   20.9645 H   0  0  0  0  0  0  0  0  0  0  0  0
   21.9823   19.7503   22.6784 H   0  0  0  0  0  0  0  0  0  0  0  0
  1  2  1  0  0  0  0
  1  3  2  0  0  0  0
  1  4  1  0  0  0  0
  4  5  1  0  0  0  0
  4  6  1  0  0  0  0
  4  7  1  0  0  0  0
  7  8  1  0  0  0  0
  7  9  1  0  0  0  0
  7 10  1  0  0  0  0
 10 11  1  0  0  0  0
 10 12  1  0  0  0  0
 10 13  1  0  0  0  0
M  END
> <VConfSearch Rank>
405

> <Conf_Id>
0

> <Delta U+W>
0.000

> <U+W>
-58.332

> <U>
8.390

> <W>
-66.722

> <W(PB)>
-68.455

> <W(SA)>
1.733

> <Valence>
6.333

> <Coulomb>
1.215

> <VdW>
0.842

> <VdW6>
-3.344

> <VdW12>
4.186

> <Bond>
0.091

> <Angle>
2.713

> <Pdih>
3.529

> <Idih>
0.000

> <Tether>
0.000

$$$$
VeraChem MOL file


 13 12  0  0  0  0  0  0  0  0999 V2000     
   21.9925   19.0535   22.5013 C   0  0  0  0  0  0  0  0  0  0  0  0
   22.1726   18.7146   23.6537 O   0  5  0  0  0  0  0  0  0  0  0  0
   22.7561   19.7696   21.8852 O   0  0  0  0  0  0  0  0  0  0  0  0
   20.7301   18.5694   21.7959 C   0  0  0  0  0  0  0  0  0  0  0  0
   20.4789   17.5767   22.1889 H   0  0  0  0  0  0  0  0  0  0  0  0
   20.9601   18.4466   20.7305 H   0  0  0  0  0  0  0  0  0  0  0  0
   19.5312   19.5320   21.9745 C   0  0  0  0  0  0  0  0  0  0  0  0
   19.3164   19.6551   23.0453 H   0  0  0  0  0  0  0  0  0  0  0  0
   19.7977   20.5251   21.5866 H   0  0  0  0  0  0  0  0  0  0  0  0
   18.2720   19.0147   21.2506 C   0  0  0  0  0  0  0  0  0  0  0  0
   17.4336   19.7099   21.3886 H   0  0  0  0  0  0  0  0  0  0  0  0
   18.4532   18.9118   20.1725 H   0  0  0  0  0  0  0  0  0  0  0  0
   17.9682   18.0351   21.6425 H   0  0  0  0  0  0  0  0  0  0  0  0
  1  2  1  0  0  0  0
  1  3  2  0  0  0  0
  1  4  1  0  0  0  0
  4  5  1  0  0  0  0
  4  6  1  0  0  0  0
  4  7  1  0  0  0  0
  7  8  1  0  0  0  0
  7  9  1  0  0  0  0
  7 10  1  0  0  0  0
 10 11  1  0  0  0  0
 10 12  1  0  0  0  0
 10 13  1  0  0  0  0
M  END
> <VConfSearch Rank>
406

> <Conf_Id>
1

> <Delta U+W>
-1.339

> <U+W>
-59.672

> <U>
7.389

> <W>
-67.061

> <W(PB)>
-68.767

> <W(SA)>
1.707

> <Valence>
5.822

> <Coulomb>
1.255

> <VdW>
0.312

> <VdW6>
-3.061

> <VdW12>
3.372

> <Bond>
0.059

> <Angle>
2.241

> <Pdih>
3.522

> <Idih>
0.000

> <Tether>
0.000

$$$$
VeraChem MOL file


 13 12  0  0  0  0  0  0  0  0999 V2000     
   19.8281   17.4421   22.8887 C   0  0  0  0  0  0  0  0  0  0  0  0
   20.8095   16.7715   23.1399 O   0  5  0  0  0  0  0  0  0  0  0  0
   18.9063   17.5969   23.6648 O   0  0  0  0  0  0  0  0  0  0  0  0
   19.7345   18.0941   21.5114 C   0  0  0  0  0  0  0  0  0  0  0  0
   18.6910   18.3776   21.3270 H   0  0  0  0  0  0  0  0  0  0  0  0
   19.9906   17.3287   20.7692 H   0  0  0  0  0  0  0  0  0  0  0  0
   20.6621   19.3224   21.3264 C   0  0  0  0  0  0  0  0  0  0  0  0
   21.6990   19.0377   21.5536 H   0  0  0  0  0  0  0  0  0  0  0  0
   20.6435   19.6319   20.2724 H   0  0  0  0  0  0  0  0  0  0  0  0
   20.2441   20.5162   22.2095 C   0  0  0  0  0  0  0  0  0  0  0  0
   20.2940   20.2555   23.2751 H   0  0  0  0  0  0  0  0  0  0  0  0
   20.9080   21.3739   22.0400 H   0  0  0  0  0  0  0  0  0  0  0  0
   19.2172   20.8316   21.9828 H   0  0  0  0  0  0  0  0  0  0  0  0
  1  2  1  0  0  0  0
  1  3  2  0  0  0  0
  1  4  1  0  0  0  0
  4  5  1  0  0  0  0
  4  6  1  0  0  0  0
  4  7  1  0  0  0  0
  7  8  1  0  0  0  0
  7  9  1  0  0  0  0
  7 10  1  0  0  0  0
 10 11  1  0  0  0  0
 10 12  1  0  0  0  0
 10 13  1  0  0  0  0
M  END
> <VConfSearch Rank>
407

> <Conf_Id>
4

> <Delta U+W>
0.281

> <U+W>
-58.051

> <U>
9.781

> <W>
-67.832

> <W(PB)>
-69.535

> <W(SA)>
1.703

> <Valence>
6.123

> <Coulomb>
3.449

> <VdW>
0.209

> <VdW6>
-3.762

> <VdW12>
3.972

> <Bond>
0.078

> <Angle>
2.428

> <Pdih>
3.616

> <Idih>
0.002

> <Tether>
0.000

$$$$
VeraChem MOL file


 13 12  0  0  0  0  0  0  0  0999 V2000     
   21.1729   19.4382   23.3659 C   0  0  0  0  0  0  0  0  0  0  0  0
   21.5776   18.4409   23.9294 O   0  5  0  0  0  0  0  0  0  0  0  0
   21.8482   20.4346   23.2007 O   0  0  0  0  0  0  0  0  0  0  0  0
   19.7291   19.4562   22.8700 C   0  0  0  0  0  0  0  0  0  0  0  0
   19.2791   20.3974   23.2077 H   0  0  0  0  0  0  0  0  0  0  0  0
   19.1779   18.6465   23.3638 H   0  0  0  0  0  0  0  0  0  0  0  0
   19.5852   19.3390   21.3309 C   0  0  0  0  0  0  0  0  0  0  0  0
   18.5364   19.5115   21.0533 H   0  0  0  0  0  0  0  0  0  0  0  0
   20.1745   20.1294   20.8452 H   0  0  0  0  0  0  0  0  0  0  0  0
   20.0265   17.9594   20.8001 C   0  0  0  0  0  0  0  0  0  0  0  0
   19.4343   17.1555   21.2566 H   0  0  0  0  0  0  0  0  0  0  0  0
   19.8936   17.9030   19.7118 H   0  0  0  0  0  0  0  0  0  0  0  0
   21.0855   17.7716   21.0216 H   0  0  0  0  0  0  0  0  0  0  0  0
  1  2  1  0  0  0  0
  1  3  2  0  0  0  0
  1  4  1  0  0  0  0
  4  5  1  0  0  0  0
  4  6  1  0  0  0  0
  4  7  1  0  0  0  0
  7  8  1  0  0  0  0
  7  9  1  0  0  0  0
  7 10  1  0  0  0  0
 10 11  1  0  0  0  0
 10 12  1  0  0  0  0
 10 13  1  0  0  0  0
M  END
> <VConfSearch Rank>
408

> <Conf_Id>
36

> <Delta U+W>
0.272

> <U+W>
-58.060

> <U>
9.781

> <W>
-67.841

> <W(PB)>
-69.537

> <W(SA)>
1.696

> <Valence>
6.123

> <Coulomb>
3.449

> <VdW>
0.209

> <VdW6>
-3.762

> <VdW12>
3.972

> <Bond>
0.078

> <Angle>
2.428

> <Pdih>
3.616

> <Idih>
0.002

> <Tether>
0.000

$$$$
VeraChem MOL file


 13 12  0  0  0  0  0  0  0  0999 V2000     
   21.5195   17.8620   20.8157 C   0  0  0  0  0  0  0  0  0  0  0  0
   21.3970   18.2957   19.6869 O   0  5  0  0  0  0  0  0  0  0  0  0
   22.3308   17.0083   21.1118 O   0  0  0  0  0  0  0  0  0  0  0  0
   20.6255   18.3956   21.9367 C   0  0  0  0  0  0  0  0  0  0  0  0
   21.2830   18.7913   22.7200 H   0  0  0  0  0  0  0  0  0  0  0  0
   20.0937   17.5390   22.3676 H   0  0  0  0  0  0  0  0  0  0  0  0
   19.6053   19.4840   21.5119 C   0  0  0  0  0  0  0  0  0  0  0  0
   20.1401   20.3404   21.0777 H   0  0  0  0  0  0  0  0  0  0  0  0
   18.9494   19.0865   20.7249 H   0  0  0  0  0  0  0  0  0  0  0  0
   18.7508   19.9600   22.7040 C   0  0  0  0  0  0  0  0  0  0  0  0
   19.3818   20.3908   23.4926 H   0  0  0  0  0  0  0  0  0  0  0  0
   18.0357   20.7291   22.3843 H   0  0  0  0  0  0  0  0  0  0  0  0
   18.1816   19.1269   23.1369 H   0  0  0  0  0  0  0  0  0  0  0  0
  1  2  1  0  0  0  0
  1  3  2  0  0  0  0
  1  4  1  0  0  0  0
  4  5  1  0  0  0  0
  4  6  1  0  0  0  0
  4  7  1  0  0  0  0
  7  8  1  0  0  0  0
  7  9  1  0  0  0  0
  7 10  1  0  0  0  0
 10 11  1  0  0  0  0
 10 12  1  0  0  0  0
 10 13  1  0  0  0  0
M  END
> <VConfSearch Rank>
409

> <Conf_Id>
0

> <Delta U+W>
0.000

> <U+W>
-58.332

> <U>
8.390

> <W>
-66.722

> <W(PB)>
-68.455

> <W(SA)>
1.733

> <Valence>
6.333

> <Coulomb>
1.215

> <VdW>
0.842

> <VdW6>
-3.344

> <VdW12>
4.186

> <Bond>
0.091

> <Angle>
2.713

> <Pdih>
3.529

> <Idih>
0.000

> <Tether>
0.000

$$$$
VeraChem MOL file


 13 12  0  0  0  0  0  0  0  0999 V2000     
   18.8291   18.5887   23.5381 C   0  0  0  0  0  0  0  0  0  0  0  0
   19.2572   18.9985   24.5983 O   0  5  0  0  0  0  0  0  0  0  0  0
   18.0823   17.6359   23.4392 O   0  0  0  0  0  0  0  0  0  0  0  0
   19.2678   19.2970   22.2608 C   0  0  0  0  0  0  0  0  0  0  0  0
   19.4151   20.3589   22.4927 H   0  0  0  0  0  0  0  0  0  0  0  0
   18.4462   19.2352   21.5368 H   0  0  0  0  0  0  0  0  0  0  0  0
   20.5599   18.7004   21.6524 C   0  0  0  0  0  0  0  0  0  0  0  0
   21.3729   18.7586   22.3896 H   0  0  0  0  0  0  0  0  0  0  0  0
   20.4038   17.6348   21.4334 H   0  0  0  0  0  0  0  0  0  0  0  0
   20.9764   19.4376   20.3638 C   0  0  0  0  0  0  0  0  0  0  0  0
   21.8936   19.0007   19.9476 H   0  0  0  0  0  0  0  0  0  0  0  0
   20.1908   19.3677   19.6000 H   0  0  0  0  0  0  0  0  0  0  0  0
   21.1674   20.5002   20.5635 H   0  0  0  0  0  0  0  0  0  0  0  0
  1  2  1  0  0  0  0
  1  3  2  0  0  0  0
  1  4  1  0  0  0  0
  4  5  1  0  0  0  0
  4  6  1  0  0  0  0
  4  7  1  0  0  0  0
  7  8  1  0  0  0  0
  7  9  1  0  0  0  0
  7 10  1  0  0  0  0
 10 11  1  0  0  0  0
 10 12  1  0  0  0  0
 10 13  1  0  0  0  0
M  END
> <VConfSearch Rank>
410

> <Conf_Id>
1

> <Delta U+W>
-1.339

> <U+W>
-59.672

> <U>
7.389

> <W>
-67.061

> <W(PB)>
-68.767

> <W(SA)>
1.707

> <Valence>
5.822

> <Coulomb>
1.255

> <VdW>
0.312

> <VdW6>
-3.061

> <VdW12>
3.372

> <Bond>
0.059

> <Angle>
2.241

> <Pdih>
3.522

> <Idih>
0.000

> <Tether>
0.000

$$$$
VeraChem MOL file


 13 12  0  0  0  0  0  0  0  0999 V2000     
   18.4277   18.9933   22.5702 C   0  0  0  0  0  0  0  0  0  0  0  0
   17.6435   19.6209   21.8867 O   0  5  0  0  0  0  0  0  0  0  0  0
   18.1584   17.9304   23.0933 O   0  0  0  0  0  0  0  0  0  0  0  0
   19.8114   19.5913   22.8120 C   0  0  0  0  0  0  0  0  0  0  0  0
   20.2647   19.0902   23.6762 H   0  0  0  0  0  0  0  0  0  0  0  0
   19.6692   20.6414   23.0936 H   0  0  0  0  0  0  0  0  0  0  0  0
   20.7607   19.5095   21.5891 C   0  0  0  0  0  0  0  0  0  0  0  0
   20.2801   19.9776   20.7185 H   0  0  0  0  0  0  0  0  0  0  0  0
   21.6688   20.0911   21.7988 H   0  0  0  0  0  0  0  0  0  0  0  0
   21.1591   18.0590   21.2469 C   0  0  0  0  0  0  0  0  0  0  0  0
   20.2772   17.4581   20.9879 H   0  0  0  0  0  0  0  0  0  0  0  0
   21.8457   18.0381   20.3906 H   0  0  0  0  0  0  0  0  0  0  0  0
   21.6616   17.5791   22.0970 H   0  0  0  0  0  0  0  0  0  0  0  0
  1  2  1  0  0  0  0
  1  3  2  0  0  0  0
  1  4  1  0  0  0  0
  4  5  1  0  0  0  0
  4  6  1  0  0  0  0
  4  7  1  0  0  0  0
  7  8  1  0  0  0  0
  7  9  1  0  0  0  0
  7 10  1  0  0  0  0
 10 11  1  0  0  0  0
 10 12  1  0  0  0  0
 10 13  1  0  0  0  0
M  END
> <VConfSearch Rank>
411

> <Conf_Id>
4

> <Delta U+W>
0.281

> <U+W>
-58.051

> <U>
9.781

> <W>
-67.832

> <W(PB)>
-69.535

> <W(SA)>
1.703

> <Valence>
6.123

> <Coulomb>
3.449

> <VdW>
0.209

> <VdW6>
-3.762

> <VdW12>
3.972

> <Bond>
0.078

> <Angle>
2.428

> <Pdih>
3.616

> <Idih>
0.002

> <Tether>
0.000

$$$$
VeraChem MOL file


 13 12  0  0  0  0  0  0  0  0999 V2000     
   20.7822   19.8763   20.6027 C   0  0  0  0  0  0  0  0  0  0  0  0
   20.2249   19.5227   19.5828 O   0  5  0  0  0  0  0  0  0  0  0  0
   21.1106   21.0251   20.8226 O   0  0  0  0  0  0  0  0  0  0  0  0
   21.1210   18.8174   21.6490 C   0  0  0  0  0  0  0  0  0  0  0  0
   22.1685   18.9660   21.9374 H   0  0  0  0  0  0  0  0  0  0  0  0
   21.0589   17.8276   21.1802 H   0  0  0  0  0  0  0  0  0  0  0  0
   20.2262   18.8661   22.9140 C   0  0  0  0  0  0  0  0  0  0  0  0
   20.6321   18.1787   23.6687 H   0  0  0  0  0  0  0  0  0  0  0  0
   20.2632   19.8734   23.3521 H   0  0  0  0  0  0  0  0  0  0  0  0
   18.7622   18.4807   22.6168 C   0  0  0  0  0  0  0  0  0  0  0  0
   18.7004   17.4675   22.1984 H   0  0  0  0  0  0  0  0  0  0  0  0
   18.1614   18.5061   23.5352 H   0  0  0  0  0  0  0  0  0  0  0  0
   18.3095   19.1756   21.8971 H   0  0  0  0  0  0  0  0  0  0  0  0
  1  2  1  0  0  0  0
  1  3  2  0  0  0  0
  1  4  1  0  0  0  0
  4  5  1  0  0  0  0
  4  6  1  0  0  0  0
  4  7  1  0  0  0  0
  7  8  1  0  0  0  0
  7  9  1  0  0  0  0
  7 10  1  0  0  0  0
 10 11  1  0  0  0  0
 10 12  1  0  0  0  0
 10 13  1  0  0  0  0
M  END
> <VConfSearch Rank>
412

> <Conf_Id>
36

> <Delta U+W>
0.272

> <U+W>
-58.060

> <U>
9.781

> <W>
-67.841

> <W(PB)>
-69.537

> <W(SA)>
1.696

> <Valence>
6.123

> <Coulomb>
3.449

> <VdW>
0.209

> <VdW6>
-3.762

> <VdW12>
3.972

> <Bond>
0.078

> <Angle>
2.428

> <Pdih>
3.616

> <Idih>
0.002

> <Tether>
0.000

$$$$
VeraChem MOL file


 13 12  0  0  0  0  0  0  0  0999 V2000     
   20.9080   17.4846   20.6104 C   0  0  0  0  0  0  0  0  0  0  0  0
   21.8080   17.1234   21.3431 O   0  5  0  0  0  0  0  0  0  0  0  0
   20.7127   16.9999   19.5141 O   0  0  0  0  0  0  0  0  0  0  0  0
   19.9611   18.5988   21.0608 C   0  0  0  0  0  0  0  0  0  0  0  0
   18.9421   18.1950   21.0308 H   0  0  0  0  0  0  0  0  0  0  0  0
   20.0119   19.3958   20.3094 H   0  0  0  0  0  0  0  0  0  0  0  0
   20.2488   19.1873   22.4668 C   0  0  0  0  0  0  0  0  0  0  0  0
   20.2003   18.3865   23.2179 H   0  0  0  0  0  0  0  0  0  0  0  0
   21.2714   19.5887   22.4956 H   0  0  0  0  0  0  0  0  0  0  0  0
   19.2470   20.3006   22.8341 C   0  0  0  0  0  0  0  0  0  0  0  0
   18.2185   19.9164   22.8426 H   0  0  0  0  0  0  0  0  0  0  0  0
   19.4663   20.7043   23.8311 H   0  0  0  0  0  0  0  0  0  0  0  0
   19.2982   21.1283   22.1145 H   0  0  0  0  0  0  0  0  0  0  0  0
  1  2  1  0  0  0  0
  1  3  2  0  0  0  0
  1  4  1  0  0  0  0
  4  5  1  0  0  0  0
  4  6  1  0  0  0  0
  4  7  1  0  0  0  0
  7  8  1  0  0  0  0
  7  9  1  0  0  0  0
  7 10  1  0  0  0  0
 10 11  1  0  0  0  0
 10 12  1  0  0  0  0
 10 13  1  0  0  0  0
M  END
> <VConfSearch Rank>
413

> <Conf_Id>
0

> <Delta U+W>
0.000

> <U+W>
-58.332

> <U>
8.390

> <W>
-66.722

> <W(PB)>
-68.455

> <W(SA)>
1.733

> <Valence>
6.333

> <Coulomb>
1.215

> <VdW>
0.842

> <VdW6>
-3.344

> <VdW12>
4.186

> <Bond>
0.091

> <Angle>
2.713

> <Pdih>
3.529

> <Idih>
0.000

> <Tether>
0.000

$$$$
VeraChem MOL file


 13 12  0  0  0  0  0  0  0  0999 V2000     
   20.6429   18.5812   23.7873 C   0  0  0  0  0  0  0  0  0  0  0  0
   20.1342   17.6076   24.3056 O   0  5  0  0  0  0  0  0  0  0  0  0
   21.1290   19.4994   24.4166 O   0  0  0  0  0  0  0  0  0  0  0  0
   20.6549   18.6642   22.2647 C   0  0  0  0  0  0  0  0  0  0  0  0
   20.7385   17.6451   21.8679 H   0  0  0  0  0  0  0  0  0  0  0  0
   21.5589   19.2052   21.9594 H   0  0  0  0  0  0  0  0  0  0  0  0
   19.3980   19.3591   21.6875 C   0  0  0  0  0  0  0  0  0  0  0  0
   18.4987   18.8147   22.0077 H   0  0  0  0  0  0  0  0  0  0  0  0
   19.3193   20.3750   22.0992 H   0  0  0  0  0  0  0  0  0  0  0  0
   19.4406   19.4269   20.1477 C   0  0  0  0  0  0  0  0  0  0  0  0
   18.5420   19.9224   19.7575 H   0  0  0  0  0  0  0  0  0  0  0  0
   20.3163   19.9929   19.8036 H   0  0  0  0  0  0  0  0  0  0  0  0
   19.4893   18.4205   19.7114 H   0  0  0  0  0  0  0  0  0  0  0  0
  1  2  1  0  0  0  0
  1  3  2  0  0  0  0
  1  4  1  0  0  0  0
  4  5  1  0  0  0  0
  4  6  1  0  0  0  0
  4  7  1  0  0  0  0
  7  8  1  0  0  0  0
  7  9  1  0  0  0  0
  7 10  1  0  0  0  0
 10 11  1  0  0  0  0
 10 12  1  0  0  0  0
 10 13  1  0  0  0  0
M  END
> <VConfSearch Rank>
414

> <Conf_Id>
1

> <Delta U+W>
-1.339

> <U+W>
-59.672

> <U>
7.389

> <W>
-67.061

> <W(PB)>
-68.767

> <W(SA)>
1.707

> <Valence>
5.822

> <Coulomb>
1.255

> <VdW>
0.312

> <VdW6>
-3.061

> <VdW12>
3.372

> <Bond>
0.059

> <Angle>
2.241

> <Pdih>
3.522

> <Idih>
0.000

> <Tether>
0.000

$$$$
VeraChem MOL file


 13 12  0  0  0  0  0  0  0  0999 V2000     
   18.8081   17.7703   21.7915 C   0  0  0  0  0  0  0  0  0  0  0  0
   17.6760   18.2032   21.8756 O   0  5  0  0  0  0  0  0  0  0  0  0
   19.1450   16.9292   20.9821 O   0  0  0  0  0  0  0  0  0  0  0  0
   19.8517   18.2860   22.7793 C   0  0  0  0  0  0  0  0  0  0  0  0
   20.7000   17.5907   22.7892 H   0  0  0  0  0  0  0  0  0  0  0  0
   19.4016   18.2506   23.7786 H   0  0  0  0  0  0  0  0  0  0  0  0
   20.3452   19.7262   22.4869 C   0  0  0  0  0  0  0  0  0  0  0  0
   19.4840   20.4073   22.4382 H   0  0  0  0  0  0  0  0  0  0  0  0
   20.9715   20.0686   23.3221 H   0  0  0  0  0  0  0  0  0  0  0  0
   21.1566   19.8179   21.1780 C   0  0  0  0  0  0  0  0  0  0  0  0
   20.5461   19.5245   20.3138 H   0  0  0  0  0  0  0  0  0  0  0  0
   21.5070   20.8448   21.0113 H   0  0  0  0  0  0  0  0  0  0  0  0
   22.0354   19.1608   21.2143 H   0  0  0  0  0  0  0  0  0  0  0  0
  1  2  1  0  0  0  0
  1  3  2  0  0  0  0
  1  4  1  0  0  0  0
  4  5  1  0  0  0  0
  4  6  1  0  0  0  0
  4  7  1  0  0  0  0
  7  8  1  0  0  0  0
  7  9  1  0  0  0  0
  7 10  1  0  0  0  0
 10 11  1  0  0  0  0
 10 12  1  0  0  0  0
 10 13  1  0  0  0  0
M  END
> <VConfSearch Rank>
415

> <Conf_Id>
4

> <Delta U+W>
0.281

> <U+W>
-58.051

> <U>
9.781

> <W>
-67.832

> <W(PB)>
-69.535

> <W(SA)>
1.703

> <Valence>
6.123

> <Coulomb>
3.449

> <VdW>
0.209

> <VdW6>
-3.762

> <VdW12>
3.972

> <Bond>
0.078

> <Angle>
2.428

> <Pdih>
3.616

> <Idih>
0.002

> <Tether>
0.000

$$$$
VeraChem MOL file


 13 12  0  0  0  0  0  0  0  0999 V2000     
   19.5242   17.6860   23.0994 C   0  0  0  0  0  0  0  0  0  0  0  0
   20.4230   16.9033   23.3346 O   0  5  0  0  0  0  0  0  0  0  0  0
   18.7035   18.0313   23.9261 O   0  0  0  0  0  0  0  0  0  0  0  0
   19.3954   18.2386   21.6821 C   0  0  0  0  0  0  0  0  0  0  0  0
   18.3456   18.1322   21.3838 H   0  0  0  0  0  0  0  0  0  0  0  0
   19.9829   17.6075   21.0040 H   0  0  0  0  0  0  0  0  0  0  0  0
   19.8246   19.7213   21.5377 C   0  0  0  0  0  0  0  0  0  0  0  0
   19.5592   20.0765   20.5325 H   0  0  0  0  0  0  0  0  0  0  0  0
   19.2597   20.3387   22.2501 H   0  0  0  0  0  0  0  0  0  0  0  0
   21.3380   19.9221   21.7598 C   0  0  0  0  0  0  0  0  0  0  0  0
   21.9218   19.3303   21.0427 H   0  0  0  0  0  0  0  0  0  0  0  0
   21.6111   20.9776   21.6312 H   0  0  0  0  0  0  0  0  0  0  0  0
   21.6319   19.6178   22.7731 H   0  0  0  0  0  0  0  0  0  0  0  0
  1  2  1  0  0  0  0
  1  3  2  0  0  0  0
  1  4  1  0  0  0  0
  4  5  1  0  0  0  0
  4  6  1  0  0  0  0
  4  7  1  0  0  0  0
  7  8  1  0  0  0  0
  7  9  1  0  0  0  0
  7 10  1  0  0  0  0
 10 11  1  0  0  0  0
 10 12  1  0  0  0  0
 10 13  1  0  0  0  0
M  END
> <VConfSearch Rank>
416

> <Conf_Id>
36

> <Delta U+W>
0.272

> <U+W>
-58.060

> <U>
9.781

> <W>
-67.841

> <W(PB)>
-69.537

> <W(SA)>
1.696

> <Valence>
6.123

> <Coulomb>
3.449

> <VdW>
0.209

> <VdW6>
-3.762

> <VdW12>
3.972

> <Bond>
0.078

> <Angle>
2.428

> <Pdih>
3.616

> <Idih>
0.002

> <Tether>
0.000

$$$$
VeraChem MOL file


 13 12  0  0  0  0  0  0  0  0999 V2000     
   21.3041   17.6043   22.7984 C   0  0  0  0  0  0  0  0  0  0  0  0
   22.2757   18.3071   22.9967 O   0  5  0  0  0  0  0  0  0  0  0  0
   21.2512   16.4387   23.1349 O   0  0  0  0  0  0  0  0  0  0  0  0
   20.0759   18.1852   22.0949 C   0  0  0  0  0  0  0  0  0  0  0  0
   19.2196   18.0511   22.7664 H   0  0  0  0  0  0  0  0  0  0  0  0
   19.8858   17.5707   21.2068 H   0  0  0  0  0  0  0  0  0  0  0  0
   20.1890   19.6766   21.6838 C   0  0  0  0  0  0  0  0  0  0  0  0
   20.3825   20.2902   22.5747 H   0  0  0  0  0  0  0  0  0  0  0  0
   21.0495   19.8093   21.0132 H   0  0  0  0  0  0  0  0  0  0  0  0
   18.9080   20.1730   20.9836 C   0  0  0  0  0  0  0  0  0  0  0  0
   18.0370   20.0796   21.6456 H   0  0  0  0  0  0  0  0  0  0  0  0
   19.0068   21.2291   20.7004 H   0  0  0  0  0  0  0  0  0  0  0  0
   18.7094   19.5947   20.0716 H   0  0  0  0  0  0  0  0  0  0  0  0
  1  2  1  0  0  0  0
  1  3  2  0  0  0  0
  1  4  1  0  0  0  0
  4  5  1  0  0  0  0
  4  6  1  0  0  0  0
  4  7  1  0  0  0  0
  7  8  1  0  0  0  0
  7  9  1  0  0  0  0
  7 10  1  0  0  0  0
 10 11  1  0  0  0  0
 10 12  1  0  0  0  0
 10 13  1  0  0  0  0
M  END
> <VConfSearch Rank>
417

> <Conf_Id>
0

> <Delta U+W>
0.000

> <U+W>
-58.332

> <U>
8.390

> <W>
-66.722

> <W(PB)>
-68.455

> <W(SA)>
1.733

> <Valence>
6.333

> <Coulomb>
1.215

> <VdW>
0.842

> <VdW6>
-3.344

> <VdW12>
4.186

> <Bond>
0.091

> <Angle>
2.713

> <Pdih>
3.529

> <Idih>
0.000

> <Tether>
0.000

$$$$
VeraChem MOL file


 13 12  0  0  0  0  0  0  0  0999 V2000     
   21.3119   20.6839   21.7467 C   0  0  0  0  0  0  0  0  0  0  0  0
   22.4930   20.4257   21.8634 O   0  5  0  0  0  0  0  0  0  0  0  0
   20.8329   21.7684   22.0109 O   0  0  0  0  0  0  0  0  0  0  0  0
   20.3771   19.5816   21.2603 C   0  0  0  0  0  0  0  0  0  0  0  0
   20.9357   18.9418   20.5663 H   0  0  0  0  0  0  0  0  0  0  0  0
   19.5667   20.0492   20.6879 H   0  0  0  0  0  0  0  0  0  0  0  0
   19.7925   18.7322   22.4147 C   0  0  0  0  0  0  0  0  0  0  0  0
   20.6132   18.2771   22.9868 H   0  0  0  0  0  0  0  0  0  0  0  0
   19.2438   19.3846   23.1083 H   0  0  0  0  0  0  0  0  0  0  0  0
   18.8529   17.6279   21.8906 C   0  0  0  0  0  0  0  0  0  0  0  0
   18.4487   17.0369   22.7228 H   0  0  0  0  0  0  0  0  0  0  0  0
   18.0072   18.0604   21.3399 H   0  0  0  0  0  0  0  0  0  0  0  0
   19.3871   16.9444   21.2175 H   0  0  0  0  0  0  0  0  0  0  0  0
  1  2  1  0  0  0  0
  1  3  2  0  0  0  0
  1  4  1  0  0  0  0
  4  5  1  0  0  0  0
  4  6  1  0  0  0  0
  4  7  1  0  0  0  0
  7  8  1  0  0  0  0
  7  9  1  0  0  0  0
  7 10  1  0  0  0  0
 10 11  1  0  0  0  0
 10 12  1  0  0  0  0
 10 13  1  0  0  0  0
M  END
> <VConfSearch Rank>
418

> <Conf_Id>
1

> <Delta U+W>
-1.339

> <U+W>
-59.672

> <U>
7.389

> <W>
-67.061

> <W(PB)>
-68.767

> <W(SA)>
1.707

> <Valence>
5.822

> <Coulomb>
1.255

> <VdW>
0.312

> <VdW6>
-3.061

> <VdW12>
3.372

> <Bond>
0.059

> <Angle>
2.241

> <Pdih>
3.522

> <Idih>
0.000

> <Tether>
0.000

$$$$
VeraChem MOL file


 13 12  0  0  0  0  0  0  0  0999 V2000     
   21.8257   18.6770   21.5127 C   0  0  0  0  0  0  0  0  0  0  0  0
   22.0487   17.6199   20.9570 O   0  5  0  0  0  0  0  0  0  0  0  0
   22.3412   19.7273   21.1853 O   0  0  0  0  0  0  0  0  0  0  0  0
   20.8751   18.6764   22.7072 C   0  0  0  0  0  0  0  0  0  0  0  0
   21.0269   19.6010   23.2776 H   0  0  0  0  0  0  0  0  0  0  0  0
   21.1727   17.8483   23.3615 H   0  0  0  0  0  0  0  0  0  0  0  0
   19.3798   18.5223   22.3282 C   0  0  0  0  0  0  0  0  0  0  0  0
   19.2456   17.6153   21.7223 H   0  0  0  0  0  0  0  0  0  0  0  0
   18.7892   18.3806   23.2437 H   0  0  0  0  0  0  0  0  0  0  0  0
   18.8358   19.7459   21.5621 C   0  0  0  0  0  0  0  0  0  0  0  0
   19.3755   19.8916   20.6169 H   0  0  0  0  0  0  0  0  0  0  0  0
   17.7718   19.6132   21.3268 H   0  0  0  0  0  0  0  0  0  0  0  0
   18.9401   20.6611   22.1595 H   0  0  0  0  0  0  0  0  0  0  0  0
  1  2  1  0  0  0  0
  1  3  2  0  0  0  0
  1  4  1  0  0  0  0
  4  5  1  0  0  0  0
  4  6  1  0  0  0  0
  4  7  1  0  0  0  0
  7  8  1  0  0  0  0
  7  9  1  0  0  0  0
  7 10  1  0  0  0  0
 10 11  1  0  0  0  0
 10 12  1  0  0  0  0
 10 13  1  0  0  0  0
M  END
> <VConfSearch Rank>
419

> <Conf_Id>
4

> <Delta U+W>
0.281

> <U+W>
-58.051

> <U>
9.781

> <W>
-67.832

> <W(PB)>
-69.535

> <W(SA)>
1.703

> <Valence>
6.123

> <Coulomb>
3.449

> <VdW>
0.209

> <VdW6>
-3.762

> <VdW12>
3.972

> <Bond>
0.078

> <Angle>
2.428

> <Pdih>
3.616

> <Idih>
0.002

> <Tether>
0.000

$$$$
VeraChem MOL file


 13 12  0  0  0  0  0  0  0  0999 V2000     
   18.6787   18.3096   22.8385 C   0  0  0  0  0  0  0  0  0  0  0  0
   18.4589   17.1806   22.4471 O   0  5  0  0  0  0  0  0  0  0  0  0
   18.5298   18.6591   23.9925 O   0  0  0  0  0  0  0  0  0  0  0  0
   19.1314   19.3548   21.8220 C   0  0  0  0  0  0  0  0  0  0  0  0
   18.5124   20.2472   21.9727 H   0  0  0  0  0  0  0  0  0  0  0  0
   18.9110   18.9831   20.8137 H   0  0  0  0  0  0  0  0  0  0  0  0
   20.6286   19.7412   21.9330 C   0  0  0  0  0  0  0  0  0  0  0  0
   20.8292   20.5974   21.2745 H   0  0  0  0  0  0  0  0  0  0  0  0
   20.8478   20.0728   22.9576 H   0  0  0  0  0  0  0  0  0  0  0  0
   21.5682   18.5794   21.5492 C   0  0  0  0  0  0  0  0  0  0  0  0
   21.3809   18.2469   20.5197 H   0  0  0  0  0  0  0  0  0  0  0  0
   22.6183   18.8917   21.6194 H   0  0  0  0  0  0  0  0  0  0  0  0
   21.4258   17.7195   22.2171 H   0  0  0  0  0  0  0  0  0  0  0  0
  1  2  1  0  0  0  0
  1  3  2  0  0  0  0
  1  4  1  0  0  0  0
  4  5  1  0  0  0  0
  4  6  1  0  0  0  0
  4  7  1  0  0  0  0
  7  8  1  0  0  0  0
  7  9  1  0  0  0  0
  7 10  1  0  0  0  0
 10 11  1  0  0  0  0
 10 12  1  0  0  0  0
 10 13  1  0  0  0  0
M  END
> <VConfSearch Rank>
420

> <Conf_Id>
36

> <Delta U+W>
0.272

> <U+W>
-58.060

> <U>
9.781

> <W>
-67.841

> <W(PB)>
-69.537

> <W(SA)>
1.696

> <Valence>
6.123

> <Coulomb>
3.449

> <VdW>
0.209

> <VdW6>
-3.762

> <VdW12>
3.972

> <Bond>
0.078

> <Angle>
2.428

> <Pdih>
3.616

> <Idih>
0.002

> <Tether>
0.000

$$$$
VeraChem MOL file


 13 12  0  0  0  0  0  0  0  0999 V2000     
   20.8898   17.1901   22.5401 C   0  0  0  0  0  0  0  0  0  0  0  0
   20.5030   16.4139   21.6884 O   0  5  0  0  0  0  0  0  0  0  0  0
   21.5789   16.8504   23.4805 O   0  0  0  0  0  0  0  0  0  0  0  0
   20.5077   18.6689   22.4515 C   0  0  0  0  0  0  0  0  0  0  0  0
   21.4389   19.2474   22.4326 H   0  0  0  0  0  0  0  0  0  0  0  0
   19.9877   18.9293   23.3811 H   0  0  0  0  0  0  0  0  0  0  0  0
   19.6273   19.0559   21.2345 C   0  0  0  0  0  0  0  0  0  0  0  0
   20.1489   18.7915   20.3040 H   0  0  0  0  0  0  0  0  0  0  0  0
   18.6959   18.4729   21.2537 H   0  0  0  0  0  0  0  0  0  0  0  0
   19.2935   20.5614   21.2289 C   0  0  0  0  0  0  0  0  0  0  0  0
   20.2083   21.1665   21.1785 H   0  0  0  0  0  0  0  0  0  0  0  0
   18.6707   20.8160   20.3614 H   0  0  0  0  0  0  0  0  0  0  0  0
   18.7438   20.8453   22.1359 H   0  0  0  0  0  0  0  0  0  0  0  0
  1  2  1  0  0  0  0
  1  3  2  0  0  0  0
  1  4  1  0  0  0  0
  4  5  1  0  0  0  0
  4  6  1  0  0  0  0
  4  7  1  0  0  0  0
  7  8  1  0  0  0  0
  7  9  1  0  0  0  0
  7 10  1  0  0  0  0
 10 11  1  0  0  0  0
 10 12  1  0  0  0  0
 10 13  1  0  0  0  0
M  END
> <VConfSearch Rank>
421

> <Conf_Id>
0

> <Delta U+W>
0.000

> <U+W>
-58.332

> <U>
8.390

> <W>
-66.722

> <W(PB)>
-68.455

> <W(SA)>
1.733

> <Valence>
6.333

> <Coulomb>
1.215

> <VdW>
0.842

> <VdW6>
-3.344

> <VdW12>
4.186

> <Bond>
0.091

> <Angle>
2.713

> <Pdih>
3.529

> <Idih>
0.000

> <Tether>
0.000

$$$$
VeraChem MOL file


 13 12  0  0  0  0  0  0  0  0999 V2000     
   19.9819   18.1712   23.7571 C   0  0  0  0  0  0  0  0  0  0  0  0
   19.3283   17.1550   23.8818 O   0  5  0  0  0  0  0  0  0  0  0  0
   20.2475   18.9155   24.6795 O   0  0  0  0  0  0  0  0  0  0  0  0
   20.4797   18.5424   22.3643 C   0  0  0  0  0  0  0  0  0  0  0  0
   20.6792   17.6145   21.8146 H   0  0  0  0  0  0  0  0  0  0  0  0
   21.4372   19.0663   22.4725 H   0  0  0  0  0  0  0  0  0  0  0  0
   19.4771   19.4218   21.5788 C   0  0  0  0  0  0  0  0  0  0  0  0
   18.5192   18.8913   21.4854 H   0  0  0  0  0  0  0  0  0  0  0  0
   19.2774   20.3434   22.1433 H   0  0  0  0  0  0  0  0  0  0  0  0
   20.0092   19.7793   20.1766 C   0  0  0  0  0  0  0  0  0  0  0  0
   19.2852   20.4025   19.6355 H   0  0  0  0  0  0  0  0  0  0  0  0
   20.9524   20.3371   20.2448 H   0  0  0  0  0  0  0  0  0  0  0  0
   20.1883   18.8739   19.5819 H   0  0  0  0  0  0  0  0  0  0  0  0
  1  2  1  0  0  0  0
  1  3  2  0  0  0  0
  1  4  1  0  0  0  0
  4  5  1  0  0  0  0
  4  6  1  0  0  0  0
  4  7  1  0  0  0  0
  7  8  1  0  0  0  0
  7  9  1  0  0  0  0
  7 10  1  0  0  0  0
 10 11  1  0  0  0  0
 10 12  1  0  0  0  0
 10 13  1  0  0  0  0
M  END
> <VConfSearch Rank>
422

> <Conf_Id>
1

> <Delta U+W>
-1.339

> <U+W>
-59.672

> <U>
7.389

> <W>
-67.061

> <W(PB)>
-68.767

> <W(SA)>
1.707

> <Valence>
5.822

> <Coulomb>
1.255

> <VdW>
0.312

> <VdW6>
-3.061

> <VdW12>
3.372

> <Bond>
0.059

> <Angle>
2.241

> <Pdih>
3.522

> <Idih>
0.000

> <Tether>
0.000

$$$$
VeraChem MOL file


 13 12  0  0  0  0  0  0  0  0999 V2000     
   18.5175   19.1870   22.7572 C   0  0  0  0  0  0  0  0  0  0  0  0
   18.5152   19.6837   23.8660 O   0  5  0  0  0  0  0  0  0  0  0  0
   17.6958   19.4528   21.9028 O   0  0  0  0  0  0  0  0  0  0  0  0
   19.5890   18.1481   22.4355 C   0  0  0  0  0  0  0  0  0  0  0  0
   19.2725   17.5785   21.5532 H   0  0  0  0  0  0  0  0  0  0  0  0
   19.6215   17.4417   23.2735 H   0  0  0  0  0  0  0  0  0  0  0  0
   21.0022   18.7435   22.2079 C   0  0  0  0  0  0  0  0  0  0  0  0
   21.2922   19.3459   23.0802 H   0  0  0  0  0  0  0  0  0  0  0  0
   21.7303   17.9242   22.1340 H   0  0  0  0  0  0  0  0  0  0  0  0
   21.0813   19.6046   20.9304 C   0  0  0  0  0  0  0  0  0  0  0  0
   20.3964   20.4610   20.9886 H   0  0  0  0  0  0  0  0  0  0  0  0
   22.0979   19.9939   20.7886 H   0  0  0  0  0  0  0  0  0  0  0  0
   20.8164   19.0152   20.0428 H   0  0  0  0  0  0  0  0  0  0  0  0
  1  2  1  0  0  0  0
  1  3  2  0  0  0  0
  1  4  1  0  0  0  0
  4  5  1  0  0  0  0
  4  6  1  0  0  0  0
  4  7  1  0  0  0  0
  7  8  1  0  0  0  0
  7  9  1  0  0  0  0
  7 10  1  0  0  0  0
 10 11  1  0  0  0  0
 10 12  1  0  0  0  0
 10 13  1  0  0  0  0
M  END
> <VConfSearch Rank>
423

> <Conf_Id>
4

> <Delta U+W>
0.281

> <U+W>
-58.051

> <U>
9.781

> <W>
-67.832

> <W(PB)>
-69.535

> <W(SA)>
1.703

> <Valence>
6.123

> <Coulomb>
3.449

> <VdW>
0.209

> <VdW6>
-3.762

> <VdW12>
3.972

> <Bond>
0.078

> <Angle>
2.428

> <Pdih>
3.616

> <Idih>
0.002

> <Tether>
0.000

$$$$
VeraChem MOL file


 13 12  0  0  0  0  0  0  0  0999 V2000     
   21.2378   20.3123   22.3803 C   0  0  0  0  0  0  0  0  0  0  0  0
   21.0371   20.6990   23.5143 O   0  5  0  0  0  0  0  0  0  0  0  0
   22.3439   20.2429   21.8824 O   0  0  0  0  0  0  0  0  0  0  0  0
   20.0359   19.9267   21.5216 C   0  0  0  0  0  0  0  0  0  0  0  0
   20.1533   20.4251   20.5519 H   0  0  0  0  0  0  0  0  0  0  0  0
   19.1290   20.3382   21.9814 H   0  0  0  0  0  0  0  0  0  0  0  0
   19.8772   18.4005   21.3008 C   0  0  0  0  0  0  0  0  0  0  0  0
   19.0879   18.2245   20.5572 H   0  0  0  0  0  0  0  0  0  0  0  0
   20.8058   17.9915   20.8785 H   0  0  0  0  0  0  0  0  0  0  0  0
   19.5211   17.6498   22.6007 C   0  0  0  0  0  0  0  0  0  0  0  0
   18.5834   18.0283   23.0282 H   0  0  0  0  0  0  0  0  0  0  0  0
   19.3968   16.5766   22.4060 H   0  0  0  0  0  0  0  0  0  0  0  0
   20.3118   17.7675   23.3537 H   0  0  0  0  0  0  0  0  0  0  0  0
  1  2  1  0  0  0  0
  1  3  2  0  0  0  0
  1  4  1  0  0  0  0
  4  5  1  0  0  0  0
  4  6  1  0  0  0  0
  4  7  1  0  0  0  0
  7  8  1  0  0  0  0
  7  9  1  0  0  0  0
  7 10  1  0  0  0  0
 10 11  1  0  0  0  0
 10 12  1  0  0  0  0
 10 13  1  0  0  0  0
M  END
> <VConfSearch Rank>
424

> <Conf_Id>
36

> <Delta U+W>
0.272

> <U+W>
-58.060

> <U>
9.781

> <W>
-67.841

> <W(PB)>
-69.537

> <W(SA)>
1.696

> <Valence>
6.123

> <Coulomb>
3.449

> <VdW>
0.209

> <VdW6>
-3.762

> <VdW12>
3.972

> <Bond>
0.078

> <Angle>
2.428

> <Pdih>
3.616

> <Idih>
0.002

> <Tether>
0.000

$$$$
VeraChem MOL file


 13 12  0  0  0  0  0  0  0  0999 V2000     
   20.1845   19.1865   23.9391 C   0  0  0  0  0  0  0  0  0  0  0  0
   19.0096   19.1479   24.2482 O   0  5  0  0  0  0  0  0  0  0  0  0
   21.0788   19.3036   24.7523 O   0  0  0  0  0  0  0  0  0  0  0  0
   20.5873   19.0857   22.4666 C   0  0  0  0  0  0  0  0  0  0  0  0
   21.2652   18.2292   22.3702 H   0  0  0  0  0  0  0  0  0  0  0  0
   21.1687   19.9831   22.2237 H   0  0  0  0  0  0  0  0  0  0  0  0
   19.4123   18.9374   21.4649 C   0  0  0  0  0  0  0  0  0  0  0  0
   18.8293   18.0392   21.7118 H   0  0  0  0  0  0  0  0  0  0  0  0
   18.7327   19.7952   21.5652 H   0  0  0  0  0  0  0  0  0  0  0  0
   19.9132   18.8435   20.0095 C   0  0  0  0  0  0  0  0  0  0  0  0
   20.5709   17.9746   19.8756 H   0  0  0  0  0  0  0  0  0  0  0  0
   19.0685   18.7391   19.3161 H   0  0  0  0  0  0  0  0  0  0  0  0
   20.4735   19.7447   19.7279 H   0  0  0  0  0  0  0  0  0  0  0  0
  1  2  1  0  0  0  0
  1  3  2  0  0  0  0
  1  4  1  0  0  0  0
  4  5  1  0  0  0  0
  4  6  1  0  0  0  0
  4  7  1  0  0  0  0
  7  8  1  0  0  0  0
  7  9  1  0  0  0  0
  7 10  1  0  0  0  0
 10 11  1  0  0  0  0
 10 12  1  0  0  0  0
 10 13  1  0  0  0  0
M  END
> <VConfSearch Rank>
425

> <Conf_Id>
0

> <Delta U+W>
0.000

> <U+W>
-58.332

> <U>
8.390

> <W>
-66.722

> <W(PB)>
-68.455

> <W(SA)>
1.733

> <Valence>
6.333

> <Coulomb>
1.215

> <VdW>
0.842

> <VdW6>
-3.344

> <VdW12>
4.186

> <Bond>
0.091

> <Angle>
2.713

> <Pdih>
3.529

> <Idih>
0.000

> <Tether>
0.000

$$$$
VeraChem MOL file


 13 12  0  0  0  0  0  0  0  0999 V2000     
   22.0259   18.9959   21.2743 C   0  0  0  0  0  0  0  0  0  0  0  0
   22.8254   19.2523   22.1520 O   0  5  0  0  0  0  0  0  0  0  0  0
   22.2586   19.1420   20.0911 O   0  0  0  0  0  0  0  0  0  0  0  0
   20.6493   18.4805   21.6804 C   0  0  0  0  0  0  0  0  0  0  0  0
   20.7630   17.8894   22.5973 H   0  0  0  0  0  0  0  0  0  0  0  0
   20.2956   17.7984   20.8978 H   0  0  0  0  0  0  0  0  0  0  0  0
   19.6207   19.6156   21.9025 C   0  0  0  0  0  0  0  0  0  0  0  0
   19.9900   20.2977   22.6811 H   0  0  0  0  0  0  0  0  0  0  0  0
   19.5224   20.2066   20.9812 H   0  0  0  0  0  0  0  0  0  0  0  0
   18.2409   19.0624   22.3117 C   0  0  0  0  0  0  0  0  0  0  0  0
   17.5257   19.8812   22.4645 H   0  0  0  0  0  0  0  0  0  0  0  0
   17.8370   18.4002   21.5346 H   0  0  0  0  0  0  0  0  0  0  0  0
   18.3082   18.4920   23.2475 H   0  0  0  0  0  0  0  0  0  0  0  0
  1  2  1  0  0  0  0
  1  3  2  0  0  0  0
  1  4  1  0  0  0  0
  4  5  1  0  0  0  0
  4  6  1  0  0  0  0
  4  7  1  0  0  0  0
  7  8  1  0  0  0  0
  7  9  1  0  0  0  0
  7 10  1  0  0  0  0
 10 11  1  0  0  0  0
 10 12  1  0  0  0  0
 10 13  1  0  0  0  0
M  END
> <VConfSearch Rank>
426

> <Conf_Id>
1

> <Delta U+W>
-1.339

> <U+W>
-59.672

> <U>
7.389

> <W>
-67.061

> <W(PB)>
-68.767

> <W(SA)>
1.707

> <Valence>
5.822

> <Coulomb>
1.255

> <VdW>
0.312

> <VdW6>
-3.061

> <VdW12>
3.372

> <Bond>
0.059

> <Angle>
2.241

> <Pdih>
3.522

> <Idih>
0.000

> <Tether>
0.000

$$$$
VeraChem MOL file


 13 12  0  0  0  0  0  0  0  0999 V2000     
   20.7738   17.8493   23.2377 C   0  0  0  0  0  0  0  0  0  0  0  0
   21.1796   16.7788   22.8308 O   0  5  0  0  0  0  0  0  0  0  0  0
   21.3270   18.4868   24.1114 O   0  0  0  0  0  0  0  0  0  0  0  0
   19.4811   18.4027   22.6432 C   0  0  0  0  0  0  0  0  0  0  0  0
   19.0885   19.1763   23.3145 H   0  0  0  0  0  0  0  0  0  0  0  0
   18.7484   17.5870   22.6373 H   0  0  0  0  0  0  0  0  0  0  0  0
   19.6340   18.9688   21.2080 C   0  0  0  0  0  0  0  0  0  0  0  0
   20.0664   18.1991   20.5533 H   0  0  0  0  0  0  0  0  0  0  0  0
   18.6390   19.2028   20.8056 H   0  0  0  0  0  0  0  0  0  0  0  0
   20.5069   20.2401   21.1647 C   0  0  0  0  0  0  0  0  0  0  0  0
   21.5250   20.0320   21.5195 H   0  0  0  0  0  0  0  0  0  0  0  0
   20.5783   20.6254   20.1392 H   0  0  0  0  0  0  0  0  0  0  0  0
   20.0802   21.0307   21.7957 H   0  0  0  0  0  0  0  0  0  0  0  0
  1  2  1  0  0  0  0
  1  3  2  0  0  0  0
  1  4  1  0  0  0  0
  4  5  1  0  0  0  0
  4  6  1  0  0  0  0
  4  7  1  0  0  0  0
  7  8  1  0  0  0  0
  7  9  1  0  0  0  0
  7 10  1  0  0  0  0
 10 11  1  0  0  0  0
 10 12  1  0  0  0  0
 10 13  1  0  0  0  0
M  END
> <VConfSearch Rank>
427

> <Conf_Id>
4

> <Delta U+W>
0.281

> <U+W>
-58.051

> <U>
9.781

> <W>
-67.832

> <W(PB)>
-69.535

> <W(SA)>
1.703

> <Valence>
6.123

> <Coulomb>
3.449

> <VdW>
0.209

> <VdW6>
-3.762

> <VdW12>
3.972

> <Bond>
0.078

> <Angle>
2.428

> <Pdih>
3.616

> <Idih>
0.002

> <Tether>
0.000

$$$$
VeraChem MOL file


 13 12  0  0  0  0  0  0  0  0999 V2000     
   20.1240   17.8268   23.3782 C   0  0  0  0  0  0  0  0  0  0  0  0
   19.4662   18.2870   24.2900 O   0  5  0  0  0  0  0  0  0  0  0  0
   20.1405   16.6456   23.0940 O   0  0  0  0  0  0  0  0  0  0  0  0
   21.0046   18.7749   22.5681 C   0  0  0  0  0  0  0  0  0  0  0  0
   21.9982   18.3167   22.4957 H   0  0  0  0  0  0  0  0  0  0  0  0
   21.1266   19.7085   23.1309 H   0  0  0  0  0  0  0  0  0  0  0  0
   20.4707   19.0759   21.1441 C   0  0  0  0  0  0  0  0  0  0  0  0
   21.2326   19.6363   20.5851 H   0  0  0  0  0  0  0  0  0  0  0  0
   20.3130   18.1321   20.6034 H   0  0  0  0  0  0  0  0  0  0  0  0
   19.1604   19.8899   21.1647 C   0  0  0  0  0  0  0  0  0  0  0  0
   19.3018   20.8481   21.6816 H   0  0  0  0  0  0  0  0  0  0  0  0
   18.8209   20.1023   20.1426 H   0  0  0  0  0  0  0  0  0  0  0  0
   18.3616   19.3390   21.6787 H   0  0  0  0  0  0  0  0  0  0  0  0
  1  2  1  0  0  0  0
  1  3  2  0  0  0  0
  1  4  1  0  0  0  0
  4  5  1  0  0  0  0
  4  6  1  0  0  0  0
  4  7  1  0  0  0  0
  7  8  1  0  0  0  0
  7  9  1  0  0  0  0
  7 10  1  0  0  0  0
 10 11  1  0  0  0  0
 10 12  1  0  0  0  0
 10 13  1  0  0  0  0
M  END
> <VConfSearch Rank>
428

> <Conf_Id>
36

> <Delta U+W>
0.272

> <U+W>
-58.060

> <U>
9.781

> <W>
-67.841

> <W(PB)>
-69.537

> <W(SA)>
1.696

> <Valence>
6.123

> <Coulomb>
3.449

> <VdW>
0.209

> <VdW6>
-3.762

> <VdW12>
3.972

> <Bond>
0.078

> <Angle>
2.428

> <Pdih>
3.616

> <Idih>
0.002

> <Tether>
0.000

$$$$
VeraChem MOL file


 13 12  0  0  0  0  0  0  0  0999 V2000     
   18.5443   17.8249   22.8106 C   0  0  0  0  0  0  0  0  0  0  0  0
   19.2553   17.1329   23.5127 O   0  5  0  0  0  0  0  0  0  0  0  0
   17.3333   17.7346   22.8031 O   0  0  0  0  0  0  0  0  0  0  0  0
   19.1735   18.8660   21.8827 C   0  0  0  0  0  0  0  0  0  0  0  0
   18.7462   19.8408   22.1464 H   0  0  0  0  0  0  0  0  0  0  0  0
   18.8438   18.6373   20.8622 H   0  0  0  0  0  0  0  0  0  0  0  0
   20.7220   18.9453   21.9260 C   0  0  0  0  0  0  0  0  0  0  0  0
   21.0504   19.1716   22.9501 H   0  0  0  0  0  0  0  0  0  0  0  0
   21.1481   17.9666   21.6644 H   0  0  0  0  0  0  0  0  0  0  0  0
   21.2644   20.0188   20.9611 C   0  0  0  0  0  0  0  0  0  0  0  0
   20.8770   21.0127   21.2211 H   0  0  0  0  0  0  0  0  0  0  0  0
   22.3606   20.0601   21.0056 H   0  0  0  0  0  0  0  0  0  0  0  0
   20.9754   19.7980   19.9251 H   0  0  0  0  0  0  0  0  0  0  0  0
  1  2  1  0  0  0  0
  1  3  2  0  0  0  0
  1  4  1  0  0  0  0
  4  5  1  0  0  0  0
  4  6  1  0  0  0  0
  4  7  1  0  0  0  0
  7  8  1  0  0  0  0
  7  9  1  0  0  0  0
  7 10  1  0  0  0  0
 10 11  1  0  0  0  0
 10 12  1  0  0  0  0
 10 13  1  0  0  0  0
M  END
> <VConfSearch Rank>
429

> <Conf_Id>
0

> <Delta U+W>
0.000

> <U+W>
-58.332

> <U>
8.390

> <W>
-66.722

> <W(PB)>
-68.455

> <W(SA)>
1.733

> <Valence>
6.333

> <Coulomb>
1.215

> <VdW>
0.842

> <VdW6>
-3.344

> <VdW12>
4.186

> <Bond>
0.091

> <Angle>
2.713

> <Pdih>
3.529

> <Idih>
0.000

> <Tether>
0.000

$$$$
VeraChem MOL file


 13 12  0  0  0  0  0  0  0  0999 V2000     
   20.6777   17.0464   21.7133 C   0  0  0  0  0  0  0  0  0  0  0  0
   19.9353   16.2572   21.1643 O   0  5  0  0  0  0  0  0  0  0  0  0
   21.5171   16.7221   22.5290 O   0  0  0  0  0  0  0  0  0  0  0  0
   20.5353   18.5264   21.3741 C   0  0  0  0  0  0  0  0  0  0  0  0
   20.2213   18.6079   20.3264 H   0  0  0  0  0  0  0  0  0  0  0  0
   21.5257   18.9912   21.4519 H   0  0  0  0  0  0  0  0  0  0  0  0
   19.5282   19.2621   22.2908 C   0  0  0  0  0  0  0  0  0  0  0  0
   18.5428   18.7820   22.2123 H   0  0  0  0  0  0  0  0  0  0  0  0
   19.8475   19.1655   23.3380 H   0  0  0  0  0  0  0  0  0  0  0  0
   19.4072   20.7544   21.9226 C   0  0  0  0  0  0  0  0  0  0  0  0
   18.6894   21.2587   22.5828 H   0  0  0  0  0  0  0  0  0  0  0  0
   20.3750   21.2634   22.0224 H   0  0  0  0  0  0  0  0  0  0  0  0
   19.0602   20.8769   20.8881 H   0  0  0  0  0  0  0  0  0  0  0  0
  1  2  1  0  0  0  0
  1  3  2  0  0  0  0
  1  4  1  0  0  0  0
  4  5  1  0  0  0  0
  4  6  1  0  0  0  0
  4  7  1  0  0  0  0
  7  8  1  0  0  0  0
  7  9  1  0  0  0  0
  7 10  1  0  0  0  0
 10 11  1  0  0  0  0
 10 12  1  0  0  0  0
 10 13  1  0  0  0  0
M  END
> <VConfSearch Rank>
430

> <Conf_Id>
1

> <Delta U+W>
-1.339

> <U+W>
-59.672

> <U>
7.389

> <W>
-67.061

> <W(PB)>
-68.767

> <W(SA)>
1.707

> <Valence>
5.822

> <Coulomb>
1.255

> <VdW>
0.312

> <VdW6>
-3.061

> <VdW12>
3.372

> <Bond>
0.059

> <Angle>
2.241

> <Pdih>
3.522

> <Idih>
0.000

> <Tether>
0.000

$$$$
VeraChem MOL file


 13 12  0  0  0  0  0  0  0  0999 V2000     
   21.6887   19.8291   21.8410 C   0  0  0  0  0  0  0  0  0  0  0  0
   22.2970   20.0216   22.8749 O   0  5  0  0  0  0  0  0  0  0  0  0
   22.2249   19.5141   20.7974 O   0  0  0  0  0  0  0  0  0  0  0  0
   20.1752   20.0292   21.8478 C   0  0  0  0  0  0  0  0  0  0  0  0
   19.8301   20.1350   20.8119 H   0  0  0  0  0  0  0  0  0  0  0  0
   19.9738   20.9841   22.3477 H   0  0  0  0  0  0  0  0  0  0  0  0
   19.3888   18.8987   22.5597 C   0  0  0  0  0  0  0  0  0  0  0  0
   19.7703   18.7732   23.5827 H   0  0  0  0  0  0  0  0  0  0  0  0
   18.3348   19.1952   22.6501 H   0  0  0  0  0  0  0  0  0  0  0  0
   19.4715   17.5560   21.8044 C   0  0  0  0  0  0  0  0  0  0  0  0
   20.5099   17.2061   21.7340 H   0  0  0  0  0  0  0  0  0  0  0  0
   18.8890   16.7837   22.3235 H   0  0  0  0  0  0  0  0  0  0  0  0
   19.0741   17.6537   20.7856 H   0  0  0  0  0  0  0  0  0  0  0  0
  1  2  1  0  0  0  0
  1  3  2  0  0  0  0
  1  4  1  0  0  0  0
  4  5  1  0  0  0  0
  4  6  1  0  0  0  0
  4  7  1  0  0  0  0
  7  8  1  0  0  0  0
  7  9  1  0  0  0  0
  7 10  1  0  0  0  0
 10 11  1  0  0  0  0
 10 12  1  0  0  0  0
 10 13  1  0  0  0  0
M  END
> <VConfSearch Rank>
431

> <Conf_Id>
4

> <Delta U+W>
0.281

> <U+W>
-58.051

> <U>
9.781

> <W>
-67.832

> <W(PB)>
-69.535

> <W(SA)>
1.703

> <Valence>
6.123

> <Coulomb>
3.449

> <VdW>
0.209

> <VdW6>
-3.762

> <VdW12>
3.972

> <Bond>
0.078

> <Angle>
2.428

> <Pdih>
3.616

> <Idih>
0.002

> <Tether>
0.000

$$$$
VeraChem MOL file


 13 12  0  0  0  0  0  0  0  0999 V2000     
   21.1162   20.3670   21.4916 C   0  0  0  0  0  0  0  0  0  0  0  0
   21.7468   20.0782   20.4942 O   0  5  0  0  0  0  0  0  0  0  0  0
   20.6323   21.4648   21.6835 O   0  0  0  0  0  0  0  0  0  0  0  0
   20.9523   19.3075   22.5786 C   0  0  0  0  0  0  0  0  0  0  0  0
   21.2063   19.7788   23.5355 H   0  0  0  0  0  0  0  0  0  0  0  0
   21.6909   18.5142   22.4103 H   0  0  0  0  0  0  0  0  0  0  0  0
   19.5280   18.7014   22.6643 C   0  0  0  0  0  0  0  0  0  0  0  0
   19.4597   18.0681   23.5594 H   0  0  0  0  0  0  0  0  0  0  0  0
   18.7922   19.5079   22.7914 H   0  0  0  0  0  0  0  0  0  0  0  0
   19.1689   17.8594   21.4226 C   0  0  0  0  0  0  0  0  0  0  0  0
   19.8798   17.0334   21.2896 H   0  0  0  0  0  0  0  0  0  0  0  0
   18.1639   17.4296   21.5240 H   0  0  0  0  0  0  0  0  0  0  0  0
   19.1839   18.4729   20.5119 H   0  0  0  0  0  0  0  0  0  0  0  0
  1  2  1  0  0  0  0
  1  3  2  0  0  0  0
  1  4  1  0  0  0  0
  4  5  1  0  0  0  0
  4  6  1  0  0  0  0
  4  7  1  0  0  0  0
  7  8  1  0  0  0  0
  7  9  1  0  0  0  0
  7 10  1  0  0  0  0
 10 11  1  0  0  0  0
 10 12  1  0  0  0  0
 10 13  1  0  0  0  0
M  END
> <VConfSearch Rank>
432

> <Conf_Id>
36

> <Delta U+W>
0.272

> <U+W>
-58.060

> <U>
9.781

> <W>
-67.841

> <W(PB)>
-69.537

> <W(SA)>
1.696

> <Valence>
6.123

> <Coulomb>
3.449

> <VdW>
0.209

> <VdW6>
-3.762

> <VdW12>
3.972

> <Bond>
0.078

> <Angle>
2.428

> <Pdih>
3.616

> <Idih>
0.002

> <Tether>
0.000

$$$$
VeraChem MOL file


 13 12  0  0  0  0  0  0  0  0999 V2000     
   19.1821   17.2812   20.8805 C   0  0  0  0  0  0  0  0  0  0  0  0
   18.4826   16.8638   21.7825 O   0  5  0  0  0  0  0  0  0  0  0  0
   19.2601   16.7366   19.7978 O   0  0  0  0  0  0  0  0  0  0  0  0
   20.0145   18.5481   21.0873 C   0  0  0  0  0  0  0  0  0  0  0  0
   19.7199   19.2642   20.3110 H   0  0  0  0  0  0  0  0  0  0  0  0
   21.0626   18.2858   20.8999 H   0  0  0  0  0  0  0  0  0  0  0  0
   19.8831   19.2088   22.4845 C   0  0  0  0  0  0  0  0  0  0  0  0
   18.8317   19.4682   22.6716 H   0  0  0  0  0  0  0  0  0  0  0  0
   20.1760   18.4885   23.2612 H   0  0  0  0  0  0  0  0  0  0  0  0
   20.7553   20.4752   22.5999 C   0  0  0  0  0  0  0  0  0  0  0  0
   20.4611   21.2243   21.8531 H   0  0  0  0  0  0  0  0  0  0  0  0
   20.6493   20.9281   23.5943 H   0  0  0  0  0  0  0  0  0  0  0  0
   21.8162   20.2368   22.4474 H   0  0  0  0  0  0  0  0  0  0  0  0
  1  2  1  0  0  0  0
  1  3  2  0  0  0  0
  1  4  1  0  0  0  0
  4  5  1  0  0  0  0
  4  6  1  0  0  0  0
  4  7  1  0  0  0  0
  7  8  1  0  0  0  0
  7  9  1  0  0  0  0
  7 10  1  0  0  0  0
 10 11  1  0  0  0  0
 10 12  1  0  0  0  0
 10 13  1  0  0  0  0
M  END
> <VConfSearch Rank>
433

> <Conf_Id>
0

> <Delta U+W>
0.000

> <U+W>
-58.332

> <U>
8.390

> <W>
-66.722

> <W(PB)>
-68.455

> <W(SA)>
1.733

> <Valence>
6.333

> <Coulomb>
1.215

> <VdW>
0.842

> <VdW6>
-3.344

> <VdW12>
4.186

> <Bond>
0.091

> <Angle>
2.713

> <Pdih>
3.529

> <Idih>
0.000

> <Tether>
0.000

$$$$
VeraChem MOL file


 13 12  0  0  0  0  0  0  0  0999 V2000     
   21.3859   20.5684   22.2479 C   0  0  0  0  0  0  0  0  0  0  0  0
   22.0552   20.9498   21.3088 O   0  5  0  0  0  0  0  0  0  0  0  0
   21.7351   20.6716   23.4067 O   0  0  0  0  0  0  0  0  0  0  0  0
   20.0432   19.9072   21.9553 C   0  0  0  0  0  0  0  0  0  0  0  0
   19.6251   20.3685   21.0523 H   0  0  0  0  0  0  0  0  0  0  0  0
   19.3611   20.1391   22.7823 H   0  0  0  0  0  0  0  0  0  0  0  0
   20.1523   18.3745   21.7687 C   0  0  0  0  0  0  0  0  0  0  0  0
   20.8454   18.1541   20.9447 H   0  0  0  0  0  0  0  0  0  0  0  0
   20.5812   17.9246   22.6751 H   0  0  0  0  0  0  0  0  0  0  0  0
   18.7797   17.7369   21.4746 C   0  0  0  0  0  0  0  0  0  0  0  0
   18.8774   16.6511   21.3455 H   0  0  0  0  0  0  0  0  0  0  0  0
   18.0775   17.9185   22.2989 H   0  0  0  0  0  0  0  0  0  0  0  0
   18.3437   18.1497   20.5553 H   0  0  0  0  0  0  0  0  0  0  0  0
  1  2  1  0  0  0  0
  1  3  2  0  0  0  0
  1  4  1  0  0  0  0
  4  5  1  0  0  0  0
  4  6  1  0  0  0  0
  4  7  1  0  0  0  0
  7  8  1  0  0  0  0
  7  9  1  0  0  0  0
  7 10  1  0  0  0  0
 10 11  1  0  0  0  0
 10 12  1  0  0  0  0
 10 13  1  0  0  0  0
M  END
> <VConfSearch Rank>
434

> <Conf_Id>
1

> <Delta U+W>
-1.339

> <U+W>
-59.672

> <U>
7.389

> <W>
-67.061

> <W(PB)>
-68.767

> <W(SA)>
1.707

> <Valence>
5.822

> <Coulomb>
1.255

> <VdW>
0.312

> <VdW6>
-3.061

> <VdW12>
3.372

> <Bond>
0.059

> <Angle>
2.241

> <Pdih>
3.522

> <Idih>
0.000

> <Tether>
0.000

$$$$
VeraChem MOL file


 13 12  0  0  0  0  0  0  0  0999 V2000     
   21.6531   18.1855   21.4825 C   0  0  0  0  0  0  0  0  0  0  0  0
   22.4856   18.9173   20.9850 O   0  5  0  0  0  0  0  0  0  0  0  0
   21.9268   17.2832   22.2485 O   0  0  0  0  0  0  0  0  0  0  0  0
   20.1906   18.3901   21.0949 C   0  0  0  0  0  0  0  0  0  0  0  0
   19.6279   17.4855   21.3566 H   0  0  0  0  0  0  0  0  0  0  0  0
   20.1515   18.4825   20.0030 H   0  0  0  0  0  0  0  0  0  0  0  0
   19.5309   19.6350   21.7417 C   0  0  0  0  0  0  0  0  0  0  0  0
   20.1252   20.5294   21.5077 H   0  0  0  0  0  0  0  0  0  0  0  0
   18.5391   19.7895   21.2952 H   0  0  0  0  0  0  0  0  0  0  0  0
   19.3790   19.4955   23.2705 C   0  0  0  0  0  0  0  0  0  0  0  0
   20.3577   19.3835   23.7558 H   0  0  0  0  0  0  0  0  0  0  0  0
   18.8917   20.3836   23.6935 H   0  0  0  0  0  0  0  0  0  0  0  0
   18.7690   18.6192   23.5259 H   0  0  0  0  0  0  0  0  0  0  0  0
  1  2  1  0  0  0  0
  1  3  2  0  0  0  0
  1  4  1  0  0  0  0
  4  5  1  0  0  0  0
  4  6  1  0  0  0  0
  4  7  1  0  0  0  0
  7  8  1  0  0  0  0
  7  9  1  0  0  0  0
  7 10  1  0  0  0  0
 10 11  1  0  0  0  0
 10 12  1  0  0  0  0
 10 13  1  0  0  0  0
M  END
> <VConfSearch Rank>
435

> <Conf_Id>
4

> <Delta U+W>
0.281

> <U+W>
-58.051

> <U>
9.781

> <W>
-67.832

> <W(PB)>
-69.535

> <W(SA)>
1.703

> <Valence>
6.123

> <Coulomb>
3.449

> <VdW>
0.209

> <VdW6>
-3.762

> <VdW12>
3.972

> <Bond>
0.078

> <Angle>
2.428

> <Pdih>
3.616

> <Idih>
0.002

> <Tether>
0.000

$$$$
VeraChem MOL file


 13 12  0  0  0  0  0  0  0  0999 V2000     
   19.4663   20.1012   23.2227 C   0  0  0  0  0  0  0  0  0  0  0  0
   18.5469   20.7350   22.7442 O   0  5  0  0  0  0  0  0  0  0  0  0
   19.4827   19.7097   24.3727 O   0  0  0  0  0  0  0  0  0  0  0  0
   20.6817   19.8111   22.3456 C   0  0  0  0  0  0  0  0  0  0  0  0
   21.5741   20.0753   22.9255 H   0  0  0  0  0  0  0  0  0  0  0  0
   20.6575   20.4823   21.4783 H   0  0  0  0  0  0  0  0  0  0  0  0
   20.7890   18.3372   21.8772 C   0  0  0  0  0  0  0  0  0  0  0  0
   21.7595   18.1856   21.3853 H   0  0  0  0  0  0  0  0  0  0  0  0
   20.7708   17.6713   22.7514 H   0  0  0  0  0  0  0  0  0  0  0  0
   19.6619   17.9448   20.8997 C   0  0  0  0  0  0  0  0  0  0  0  0
   19.6759   18.5843   20.0074 H   0  0  0  0  0  0  0  0  0  0  0  0
   19.7784   16.9033   20.5729 H   0  0  0  0  0  0  0  0  0  0  0  0
   18.6763   18.0421   21.3742 H   0  0  0  0  0  0  0  0  0  0  0  0
  1  2  1  0  0  0  0
  1  3  2  0  0  0  0
  1  4  1  0  0  0  0
  4  5  1  0  0  0  0
  4  6  1  0  0  0  0
  4  7  1  0  0  0  0
  7  8  1  0  0  0  0
  7  9  1  0  0  0  0
  7 10  1  0  0  0  0
 10 11  1  0  0  0  0
 10 12  1  0  0  0  0
 10 13  1  0  0  0  0
M  END
> <VConfSearch Rank>
436

> <Conf_Id>
36

> <Delta U+W>
0.272

> <U+W>
-58.060

> <U>
9.781

> <W>
-67.841

> <W(PB)>
-69.537

> <W(SA)>
1.696

> <Valence>
6.123

> <Coulomb>
3.449

> <VdW>
0.209

> <VdW6>
-3.762

> <VdW12>
3.972

> <Bond>
0.078

> <Angle>
2.428

> <Pdih>
3.616

> <Idih>
0.002

> <Tether>
0.000

$$$$
VeraChem MOL file


 13 12  0  0  0  0  0  0  0  0999 V2000     
   19.7700   19.3829   19.7381 C   0  0  0  0  0  0  0  0  0  0  0  0
   20.1212   20.5455   19.6892 O   0  5  0  0  0  0  0  0  0  0  0  0
   19.4035   18.7611   18.7615 O   0  0  0  0  0  0  0  0  0  0  0  0
   19.7787   18.6413   21.0763 C   0  0  0  0  0  0  0  0  0  0  0  0
   20.4207   17.7602   20.9585 H   0  0  0  0  0  0  0  0  0  0  0  0
   18.7609   18.2744   21.2542 H   0  0  0  0  0  0  0  0  0  0  0  0
   20.2540   19.4750   22.2949 C   0  0  0  0  0  0  0  0  0  0  0  0
   21.2731   19.8442   22.1133 H   0  0  0  0  0  0  0  0  0  0  0  0
   19.6113   20.3590   22.4093 H   0  0  0  0  0  0  0  0  0  0  0  0
   20.2293   18.6473   23.5957 C   0  0  0  0  0  0  0  0  0  0  0  0
   20.8892   17.7732   23.5178 H   0  0  0  0  0  0  0  0  0  0  0  0
   20.5685   19.2533   24.4459 H   0  0  0  0  0  0  0  0  0  0  0  0
   19.2140   18.2921   23.8162 H   0  0  0  0  0  0  0  0  0  0  0  0
  1  2  1  0  0  0  0
  1  3  2  0  0  0  0
  1  4  1  0  0  0  0
  4  5  1  0  0  0  0
  4  6  1  0  0  0  0
  4  7  1  0  0  0  0
  7  8  1  0  0  0  0
  7  9  1  0  0  0  0
  7 10  1  0  0  0  0
 10 11  1  0  0  0  0
 10 12  1  0  0  0  0
 10 13  1  0  0  0  0
M  END
> <VConfSearch Rank>
437

> <Conf_Id>
0

> <Delta U+W>
0.000

> <U+W>
-58.332

> <U>
8.390

> <W>
-66.722

> <W(PB)>
-68.455

> <W(SA)>
1.733

> <Valence>
6.333

> <Coulomb>
1.215

> <VdW>
0.842

> <VdW6>
-3.344

> <VdW12>
4.186

> <Bond>
0.091

> <Angle>
2.713

> <Pdih>
3.529

> <Idih>
0.000

> <Tether>
0.000

$$$$
VeraChem MOL file


 13 12  0  0  0  0  0  0  0  0999 V2000     
   21.6901   19.5970   20.7108 C   0  0  0  0  0  0  0  0  0  0  0  0
   21.4810   19.9723   19.5747 O   0  5  0  0  0  0  0  0  0  0  0  0
   22.7489   19.1290   21.0787 O   0  0  0  0  0  0  0  0  0  0  0  0
   20.5564   19.7015   21.7253 C   0  0  0  0  0  0  0  0  0  0  0  0
   19.9518   20.5810   21.4722 H   0  0  0  0  0  0  0  0  0  0  0  0
   20.9975   19.8855   22.7125 H   0  0  0  0  0  0  0  0  0  0  0  0
   19.6650   18.4367   21.7675 C   0  0  0  0  0  0  0  0  0  0  0  0
   19.2368   18.2567   20.7715 H   0  0  0  0  0  0  0  0  0  0  0  0
   20.2826   17.5612   22.0121 H   0  0  0  0  0  0  0  0  0  0  0  0
   18.5296   18.5739   22.8016 C   0  0  0  0  0  0  0  0  0  0  0  0
   17.9091   17.6684   22.8170 H   0  0  0  0  0  0  0  0  0  0  0  0
   18.9339   18.7250   23.8112 H   0  0  0  0  0  0  0  0  0  0  0  0
   17.8801   19.4259   22.5610 H   0  0  0  0  0  0  0  0  0  0  0  0
  1  2  1  0  0  0  0
  1  3  2  0  0  0  0
  1  4  1  0  0  0  0
  4  5  1  0  0  0  0
  4  6  1  0  0  0  0
  4  7  1  0  0  0  0
  7  8  1  0  0  0  0
  7  9  1  0  0  0  0
  7 10  1  0  0  0  0
 10 11  1  0  0  0  0
 10 12  1  0  0  0  0
 10 13  1  0  0  0  0
M  END
> <VConfSearch Rank>
438

> <Conf_Id>
1

> <Delta U+W>
-1.339

> <U+W>
-59.672

> <U>
7.389

> <W>
-67.061

> <W(PB)>
-68.767

> <W(SA)>
1.707

> <Valence>
5.822

> <Coulomb>
1.255

> <VdW>
0.312

> <VdW6>
-3.061

> <VdW12>
3.372

> <Bond>
0.059

> <Angle>
2.241

> <Pdih>
3.522

> <Idih>
0.000

> <Tether>
0.000

$$$$
VeraChem MOL file


 13 12  0  0  0  0  0  0  0  0999 V2000     
   18.5028   19.7281   22.0078 C   0  0  0  0  0  0  0  0  0  0  0  0
   18.4820   20.9414   21.9495 O   0  5  0  0  0  0  0  0  0  0  0  0
   17.7152   19.0158   21.4176 O   0  0  0  0  0  0  0  0  0  0  0  0
   19.5520   19.0676   22.8986 C   0  0  0  0  0  0  0  0  0  0  0  0
   19.2452   18.0329   23.0951 H   0  0  0  0  0  0  0  0  0  0  0  0
   19.5385   19.5902   23.8625 H   0  0  0  0  0  0  0  0  0  0  0  0
   20.9884   19.0971   22.3163 C   0  0  0  0  0  0  0  0  0  0  0  0
   21.2701   20.1339   22.0846 H   0  0  0  0  0  0  0  0  0  0  0  0
   21.6937   18.7415   23.0798 H   0  0  0  0  0  0  0  0  0  0  0  0
   21.1312   18.2237   21.0527 C   0  0  0  0  0  0  0  0  0  0  0  0
   20.4707   18.5789   20.2506 H   0  0  0  0  0  0  0  0  0  0  0  0
   22.1627   18.2511   20.6780 H   0  0  0  0  0  0  0  0  0  0  0  0
   20.8756   17.1778   21.2676 H   0  0  0  0  0  0  0  0  0  0  0  0
  1  2  1  0  0  0  0
  1  3  2  0  0  0  0
  1  4  1  0  0  0  0
  4  5  1  0  0  0  0
  4  6  1  0  0  0  0
  4  7  1  0  0  0  0
  7  8  1  0  0  0  0
  7  9  1  0  0  0  0
  7 10  1  0  0  0  0
 10 11  1  0  0  0  0
 10 12  1  0  0  0  0
 10 13  1  0  0  0  0
M  END
> <VConfSearch Rank>
439

> <Conf_Id>
4

> <Delta U+W>
0.281

> <U+W>
-58.051

> <U>
9.781

> <W>
-67.832

> <W(PB)>
-69.535

> <W(SA)>
1.703

> <Valence>
6.123

> <Coulomb>
3.449

> <VdW>
0.209

> <VdW6>
-3.762

> <VdW12>
3.972

> <Bond>
0.078

> <Angle>
2.428

> <Pdih>
3.616

> <Idih>
0.002

> <Tether>
0.000

$$$$
VeraChem MOL file


 13 12  0  0  0  0  0  0  0  0999 V2000     
   20.8095   17.4969   22.7499 C   0  0  0  0  0  0  0  0  0  0  0  0
   21.8802   17.2416   22.2357 O   0  5  0  0  0  0  0  0  0  0  0  0
   20.5825   17.3468   23.9339 O   0  0  0  0  0  0  0  0  0  0  0  0
   19.6773   17.9990   21.8574 C   0  0  0  0  0  0  0  0  0  0  0  0
   18.7843   17.4106   22.0998 H   0  0  0  0  0  0  0  0  0  0  0  0
   19.9286   17.7775   20.8128 H   0  0  0  0  0  0  0  0  0  0  0  0
   19.3609   19.5077   22.0220 C   0  0  0  0  0  0  0  0  0  0  0  0
   18.4460   19.7467   21.4627 H   0  0  0  0  0  0  0  0  0  0  0  0
   19.1511   19.7263   23.0785 H   0  0  0  0  0  0  0  0  0  0  0  0
   20.5079   20.4096   21.5211 C   0  0  0  0  0  0  0  0  0  0  0  0
   20.7191   20.2229   20.4600 H   0  0  0  0  0  0  0  0  0  0  0  0
   20.2441   21.4692   21.6335 H   0  0  0  0  0  0  0  0  0  0  0  0
   21.4295   20.2284   22.0898 H   0  0  0  0  0  0  0  0  0  0  0  0
  1  2  1  0  0  0  0
  1  3  2  0  0  0  0
  1  4  1  0  0  0  0
  4  5  1  0  0  0  0
  4  6  1  0  0  0  0
  4  7  1  0  0  0  0
  7  8  1  0  0  0  0
  7  9  1  0  0  0  0
  7 10  1  0  0  0  0
 10 11  1  0  0  0  0
 10 12  1  0  0  0  0
 10 13  1  0  0  0  0
M  END
> <VConfSearch Rank>
440

> <Conf_Id>
36

> <Delta U+W>
0.272

> <U+W>
-58.060

> <U>
9.781

> <W>
-67.841

> <W(PB)>
-69.537

> <W(SA)>
1.696

> <Valence>
6.123

> <Coulomb>
3.449

> <VdW>
0.209

> <VdW6>
-3.762

> <VdW12>
3.972

> <Bond>
0.078

> <Angle>
2.428

> <Pdih>
3.616

> <Idih>
0.002

> <Tether>
0.000

$$$$
VeraChem MOL file


 13 12  0  0  0  0  0  0  0  0999 V2000     
   19.4278   20.6790   20.6473 C   0  0  0  0  0  0  0  0  0  0  0  0
   19.6160   21.5763   21.4452 O   0  5  0  0  0  0  0  0  0  0  0  0
   19.0082   20.8702   19.5238 O   0  0  0  0  0  0  0  0  0  0  0  0
   19.7230   19.2318   21.0463 C   0  0  0  0  0  0  0  0  0  0  0  0
   20.4494   18.8352   20.3271 H   0  0  0  0  0  0  0  0  0  0  0  0
   18.7967   18.6600   20.9144 H   0  0  0  0  0  0  0  0  0  0  0  0
   20.2566   19.0362   22.4896 C   0  0  0  0  0  0  0  0  0  0  0  0
   21.1832   19.6123   22.6206 H   0  0  0  0  0  0  0  0  0  0  0  0
   19.5286   19.4370   23.2087 H   0  0  0  0  0  0  0  0  0  0  0  0
   20.5247   17.5499   22.8010 C   0  0  0  0  0  0  0  0  0  0  0  0
   21.2735   17.1335   22.1145 H   0  0  0  0  0  0  0  0  0  0  0  0
   20.9013   17.4315   23.8255 H   0  0  0  0  0  0  0  0  0  0  0  0
   19.6055   16.9568   22.7072 H   0  0  0  0  0  0  0  0  0  0  0  0
  1  2  1  0  0  0  0
  1  3  2  0  0  0  0
  1  4  1  0  0  0  0
  4  5  1  0  0  0  0
  4  6  1  0  0  0  0
  4  7  1  0  0  0  0
  7  8  1  0  0  0  0
  7  9  1  0  0  0  0
  7 10  1  0  0  0  0
 10 11  1  0  0  0  0
 10 12  1  0  0  0  0
 10 13  1  0  0  0  0
M  END
> <VConfSearch Rank>
441

> <Conf_Id>
0

> <Delta U+W>
0.000

> <U+W>
-58.332

> <U>
8.390

> <W>
-66.722

> <W(PB)>
-68.455

> <W(SA)>
1.733

> <Valence>
6.333

> <Coulomb>
1.215

> <VdW>
0.842

> <VdW6>
-3.344

> <VdW12>
4.186

> <Bond>
0.091

> <Angle>
2.713

> <Pdih>
3.529

> <Idih>
0.000

> <Tether>
0.000

$$$$
VeraChem MOL file


 13 12  0  0  0  0  0  0  0  0999 V2000     
   18.6874   18.7900   23.4760 C   0  0  0  0  0  0  0  0  0  0  0  0
   17.5003   18.8794   23.2351 O   0  5  0  0  0  0  0  0  0  0  0  0
   19.1670   18.9960   24.5728 O   0  0  0  0  0  0  0  0  0  0  0  0
   19.6288   18.4173   22.3356 C   0  0  0  0  0  0  0  0  0  0  0  0
   19.0901   17.7488   21.6530 H   0  0  0  0  0  0  0  0  0  0  0  0
   20.4646   17.8449   22.7561 H   0  0  0  0  0  0  0  0  0  0  0  0
   20.1614   19.6493   21.5647 C   0  0  0  0  0  0  0  0  0  0  0  0
   19.3155   20.2201   21.1567 H   0  0  0  0  0  0  0  0  0  0  0  0
   20.6903   20.3161   22.2600 H   0  0  0  0  0  0  0  0  0  0  0  0
   21.1090   19.2393   20.4196 C   0  0  0  0  0  0  0  0  0  0  0  0
   21.4759   20.1253   19.8853 H   0  0  0  0  0  0  0  0  0  0  0  0
   21.9789   18.6923   20.8065 H   0  0  0  0  0  0  0  0  0  0  0  0
   20.5935   18.5956   19.6947 H   0  0  0  0  0  0  0  0  0  0  0  0
  1  2  1  0  0  0  0
  1  3  2  0  0  0  0
  1  4  1  0  0  0  0
  4  5  1  0  0  0  0
  4  6  1  0  0  0  0
  4  7  1  0  0  0  0
  7  8  1  0  0  0  0
  7  9  1  0  0  0  0
  7 10  1  0  0  0  0
 10 11  1  0  0  0  0
 10 12  1  0  0  0  0
 10 13  1  0  0  0  0
M  END
> <VConfSearch Rank>
442

> <Conf_Id>
1

> <Delta U+W>
-1.339

> <U+W>
-59.672

> <U>
7.389

> <W>
-67.061

> <W(PB)>
-68.767

> <W(SA)>
1.707

> <Valence>
5.822

> <Coulomb>
1.255

> <VdW>
0.312

> <VdW6>
-3.061

> <VdW12>
3.372

> <Bond>
0.059

> <Angle>
2.241

> <Pdih>
3.522

> <Idih>
0.000

> <Tether>
0.000

$$$$
VeraChem MOL file


 13 12  0  0  0  0  0  0  0  0999 V2000     
   20.2592   17.7813   23.3331 C   0  0  0  0  0  0  0  0  0  0  0  0
   19.7494   18.1054   24.3872 O   0  5  0  0  0  0  0  0  0  0  0  0
   20.2082   16.6539   22.8834 O   0  0  0  0  0  0  0  0  0  0  0  0
   21.0345   18.8397   22.5524 C   0  0  0  0  0  0  0  0  0  0  0  0
   21.6824   18.3354   21.8250 H   0  0  0  0  0  0  0  0  0  0  0  0
   21.6945   19.3519   23.2627 H   0  0  0  0  0  0  0  0  0  0  0  0
   20.1388   19.8830   21.8364 C   0  0  0  0  0  0  0  0  0  0  0  0
   19.4652   20.3525   22.5670 H   0  0  0  0  0  0  0  0  0  0  0  0
   20.7725   20.6838   21.4313 H   0  0  0  0  0  0  0  0  0  0  0  0
   19.3135   19.2644   20.6892 C   0  0  0  0  0  0  0  0  0  0  0  0
   18.6343   18.4881   21.0657 H   0  0  0  0  0  0  0  0  0  0  0  0
   18.7067   20.0321   20.1916 H   0  0  0  0  0  0  0  0  0  0  0  0
   19.9691   18.8085   19.9357 H   0  0  0  0  0  0  0  0  0  0  0  0
  1  2  1  0  0  0  0
  1  3  2  0  0  0  0
  1  4  1  0  0  0  0
  4  5  1  0  0  0  0
  4  6  1  0  0  0  0
  4  7  1  0  0  0  0
  7  8  1  0  0  0  0
  7  9  1  0  0  0  0
  7 10  1  0  0  0  0
 10 11  1  0  0  0  0
 10 12  1  0  0  0  0
 10 13  1  0  0  0  0
M  END
> <VConfSearch Rank>
443

> <Conf_Id>
4

> <Delta U+W>
0.281

> <U+W>
-58.051

> <U>
9.781

> <W>
-67.832

> <W(PB)>
-69.535

> <W(SA)>
1.703

> <Valence>
6.123

> <Coulomb>
3.449

> <VdW>
0.209

> <VdW6>
-3.762

> <VdW12>
3.972

> <Bond>
0.078

> <Angle>
2.428

> <Pdih>
3.616

> <Idih>
0.002

> <Tether>
0.000

$$$$
VeraChem MOL file


 13 12  0  0  0  0  0  0  0  0999 V2000     
   18.5494   19.3826   22.7593 C   0  0  0  0  0  0  0  0  0  0  0  0
   18.0365   20.3063   22.1597 O   0  5  0  0  0  0  0  0  0  0  0  0
   17.9194   18.4528   23.2226 O   0  0  0  0  0  0  0  0  0  0  0  0
   20.0607   19.4069   22.9743 C   0  0  0  0  0  0  0  0  0  0  0  0
   20.2439   19.1886   24.0332 H   0  0  0  0  0  0  0  0  0  0  0  0
   20.4251   20.4256   22.7933 H   0  0  0  0  0  0  0  0  0  0  0  0
   20.8429   18.3962   22.0968 C   0  0  0  0  0  0  0  0  0  0  0  0
   21.8922   18.3745   22.4213 H   0  0  0  0  0  0  0  0  0  0  0  0
   20.4425   17.3850   22.2548 H   0  0  0  0  0  0  0  0  0  0  0  0
   20.7868   18.7501   20.5962 C   0  0  0  0  0  0  0  0  0  0  0  0
   21.2032   19.7493   20.4129 H   0  0  0  0  0  0  0  0  0  0  0  0
   21.3657   18.0275   20.0065 H   0  0  0  0  0  0  0  0  0  0  0  0
   19.7530   18.7377   20.2262 H   0  0  0  0  0  0  0  0  0  0  0  0
  1  2  1  0  0  0  0
  1  3  2  0  0  0  0
  1  4  1  0  0  0  0
  4  5  1  0  0  0  0
  4  6  1  0  0  0  0
  4  7  1  0  0  0  0
  7  8  1  0  0  0  0
  7  9  1  0  0  0  0
  7 10  1  0  0  0  0
 10 11  1  0  0  0  0
 10 12  1  0  0  0  0
 10 13  1  0  0  0  0
M  END
> <VConfSearch Rank>
444

> <Conf_Id>
36

> <Delta U+W>
0.272

> <U+W>
-58.060

> <U>
9.781

> <W>
-67.841

> <W(PB)>
-69.537

> <W(SA)>
1.696

> <Valence>
6.123

> <Coulomb>
3.449

> <VdW>
0.209

> <VdW6>
-3.762

> <VdW12>
3.972

> <Bond>
0.078

> <Angle>
2.428

> <Pdih>
3.616

> <Idih>
0.002

> <Tether>
0.000

$$$$
VeraChem MOL file


 13 12  0  0  0  0  0  0  0  0999 V2000     
   18.5468   17.6268   21.1268 C   0  0  0  0  0  0  0  0  0  0  0  0
   19.1414   16.5778   21.2798 O   0  5  0  0  0  0  0  0  0  0  0  0
   17.4178   17.6885   20.6837 O   0  0  0  0  0  0  0  0  0  0  0  0
   19.2244   18.9467   21.4999 C   0  0  0  0  0  0  0  0  0  0  0  0
   18.5842   19.4473   22.2360 H   0  0  0  0  0  0  0  0  0  0  0  0
   19.2326   19.5762   20.6021 H   0  0  0  0  0  0  0  0  0  0  0  0
   20.6647   18.8188   22.0613 C   0  0  0  0  0  0  0  0  0  0  0  0
   20.6548   18.1853   22.9593 H   0  0  0  0  0  0  0  0  0  0  0  0
   21.3040   18.3143   21.3233 H   0  0  0  0  0  0  0  0  0  0  0  0
   21.2652   20.1961   22.4082 C   0  0  0  0  0  0  0  0  0  0  0  0
   20.6604   20.7082   23.1681 H   0  0  0  0  0  0  0  0  0  0  0  0
   22.2834   20.0853   22.8035 H   0  0  0  0  0  0  0  0  0  0  0  0
   21.3148   20.8383   21.5190 H   0  0  0  0  0  0  0  0  0  0  0  0
  1  2  1  0  0  0  0
  1  3  2  0  0  0  0
  1  4  1  0  0  0  0
  4  5  1  0  0  0  0
  4  6  1  0  0  0  0
  4  7  1  0  0  0  0
  7  8  1  0  0  0  0
  7  9  1  0  0  0  0
  7 10  1  0  0  0  0
 10 11  1  0  0  0  0
 10 12  1  0  0  0  0
 10 13  1  0  0  0  0
M  END
> <VConfSearch Rank>
445

> <Conf_Id>
0

> <Delta U+W>
0.000

> <U+W>
-58.332

> <U>
8.390

> <W>
-66.722

> <W(PB)>
-68.455

> <W(SA)>
1.733

> <Valence>
6.333

> <Coulomb>
1.215

> <VdW>
0.842

> <VdW6>
-3.344

> <VdW12>
4.186

> <Bond>
0.091

> <Angle>
2.713

> <Pdih>
3.529

> <Idih>
0.000

> <Tether>
0.000

$$$$
VeraChem MOL file


 13 12  0  0  0  0  0  0  0  0999 V2000     
   18.9251   17.2187   21.9418 C   0  0  0  0  0  0  0  0  0  0  0  0
   17.8002   17.2845   22.3952 O   0  5  0  0  0  0  0  0  0  0  0  0
   19.5978   16.2075   21.9597 O   0  0  0  0  0  0  0  0  0  0  0  0
   19.5328   18.4786   21.3343 C   0  0  0  0  0  0  0  0  0  0  0  0
   18.7232   19.0641   20.8818 H   0  0  0  0  0  0  0  0  0  0  0  0
   20.2056   18.1759   20.5226 H   0  0  0  0  0  0  0  0  0  0  0  0
   20.2988   19.3389   22.3682 C   0  0  0  0  0  0  0  0  0  0  0  0
   19.6178   19.6278   23.1810 H   0  0  0  0  0  0  0  0  0  0  0  0
   21.1005   18.7395   22.8217 H   0  0  0  0  0  0  0  0  0  0  0  0
   20.9002   20.6038   21.7234 C   0  0  0  0  0  0  0  0  0  0  0  0
   21.4389   21.2003   22.4712 H   0  0  0  0  0  0  0  0  0  0  0  0
   21.6080   20.3398   20.9265 H   0  0  0  0  0  0  0  0  0  0  0  0
   20.1139   21.2349   21.2886 H   0  0  0  0  0  0  0  0  0  0  0  0
  1  2  1  0  0  0  0
  1  3  2  0  0  0  0
  1  4  1  0  0  0  0
  4  5  1  0  0  0  0
  4  6  1  0  0  0  0
  4  7  1  0  0  0  0
  7  8  1  0  0  0  0
  7  9  1  0  0  0  0
  7 10  1  0  0  0  0
 10 11  1  0  0  0  0
 10 12  1  0  0  0  0
 10 13  1  0  0  0  0
M  END
> <VConfSearch Rank>
446

> <Conf_Id>
1

> <Delta U+W>
-1.339

> <U+W>
-59.672

> <U>
7.389

> <W>
-67.061

> <W(PB)>
-68.767

> <W(SA)>
1.707

> <Valence>
5.822

> <Coulomb>
1.255

> <VdW>
0.312

> <VdW6>
-3.061

> <VdW12>
3.372

> <Bond>
0.059

> <Angle>
2.241

> <Pdih>
3.522

> <Idih>
0.000

> <Tether>
0.000

$$$$
VeraChem MOL file


 13 12  0  0  0  0  0  0  0  0999 V2000     
   19.0863   20.1152   21.0944 C   0  0  0  0  0  0  0  0  0  0  0  0
   17.9190   20.1543   21.4291 O   0  5  0  0  0  0  0  0  0  0  0  0
   19.7310   21.1010   20.7971 O   0  0  0  0  0  0  0  0  0  0  0  0
   19.7659   18.7507   21.0094 C   0  0  0  0  0  0  0  0  0  0  0  0
   20.6755   18.8483   20.4042 H   0  0  0  0  0  0  0  0  0  0  0  0
   19.0909   18.0828   20.4610 H   0  0  0  0  0  0  0  0  0  0  0  0
   20.1053   18.1239   22.3861 C   0  0  0  0  0  0  0  0  0  0  0  0
   19.1950   18.0688   22.9995 H   0  0  0  0  0  0  0  0  0  0  0  0
   20.4480   17.0909   22.2365 H   0  0  0  0  0  0  0  0  0  0  0  0
   21.1954   18.9122   23.1411 C   0  0  0  0  0  0  0  0  0  0  0  0
   20.8680   19.9398   23.3474 H   0  0  0  0  0  0  0  0  0  0  0  0
   21.4256   18.4316   24.1008 H   0  0  0  0  0  0  0  0  0  0  0  0
   22.1222   18.9603   22.5544 H   0  0  0  0  0  0  0  0  0  0  0  0
  1  2  1  0  0  0  0
  1  3  2  0  0  0  0
  1  4  1  0  0  0  0
  4  5  1  0  0  0  0
  4  6  1  0  0  0  0
  4  7  1  0  0  0  0
  7  8  1  0  0  0  0
  7  9  1  0  0  0  0
  7 10  1  0  0  0  0
 10 11  1  0  0  0  0
 10 12  1  0  0  0  0
 10 13  1  0  0  0  0
M  END
> <VConfSearch Rank>
447

> <Conf_Id>
4

> <Delta U+W>
0.281

> <U+W>
-58.051

> <U>
9.781

> <W>
-67.832

> <W(PB)>
-69.535

> <W(SA)>
1.703

> <Valence>
6.123

> <Coulomb>
3.449

> <VdW>
0.209

> <VdW6>
-3.762

> <VdW12>
3.972

> <Bond>
0.078

> <Angle>
2.428

> <Pdih>
3.616

> <Idih>
0.002

> <Tether>
0.000

$$$$
VeraChem MOL file


 13 12  0  0  0  0  0  0  0  0999 V2000     
   21.3862   18.1556   22.9663 C   0  0  0  0  0  0  0  0  0  0  0  0
   21.5341   18.7443   24.0186 O   0  5  0  0  0  0  0  0  0  0  0  0
   21.4455   16.9467   22.8612 O   0  0  0  0  0  0  0  0  0  0  0  0
   21.1488   18.9778   21.7020 C   0  0  0  0  0  0  0  0  0  0  0  0
   21.8331   18.6000   20.9329 H   0  0  0  0  0  0  0  0  0  0  0  0
   21.4373   20.0175   21.8995 H   0  0  0  0  0  0  0  0  0  0  0  0
   19.6935   18.9192   21.1708 C   0  0  0  0  0  0  0  0  0  0  0  0
   19.6491   19.4082   20.1881 H   0  0  0  0  0  0  0  0  0  0  0  0
   19.4006   17.8713   21.0156 H   0  0  0  0  0  0  0  0  0  0  0  0
   18.6903   19.6054   22.1209 C   0  0  0  0  0  0  0  0  0  0  0  0
   18.9521   20.6608   22.2723 H   0  0  0  0  0  0  0  0  0  0  0  0
   17.6745   19.5635   21.7066 H   0  0  0  0  0  0  0  0  0  0  0  0
   18.6758   19.1129   23.1022 H   0  0  0  0  0  0  0  0  0  0  0  0
  1  2  1  0  0  0  0
  1  3  2  0  0  0  0
  1  4  1  0  0  0  0
  4  5  1  0  0  0  0
  4  6  1  0  0  0  0
  4  7  1  0  0  0  0
  7  8  1  0  0  0  0
  7  9  1  0  0  0  0
  7 10  1  0  0  0  0
 10 11  1  0  0  0  0
 10 12  1  0  0  0  0
 10 13  1  0  0  0  0
M  END
> <VConfSearch Rank>
448

> <Conf_Id>
36

> <Delta U+W>
0.272

> <U+W>
-58.060

> <U>
9.781

> <W>
-67.841

> <W(PB)>
-69.537

> <W(SA)>
1.696

> <Valence>
6.123

> <Coulomb>
3.449

> <VdW>
0.209

> <VdW6>
-3.762

> <VdW12>
3.972

> <Bond>
0.078

> <Angle>
2.428

> <Pdih>
3.616

> <Idih>
0.002

> <Tether>
0.000

$$$$
VeraChem MOL file


 13 12  0  0  0  0  0  0  0  0999 V2000     
   21.2860   19.8754   23.2995 C   0  0  0  0  0  0  0  0  0  0  0  0
   20.4571   20.4519   23.9762 O   0  5  0  0  0  0  0  0  0  0  0  0
   22.4747   19.8996   23.5471 O   0  0  0  0  0  0  0  0  0  0  0  0
   20.8435   19.0744   22.0734 C   0  0  0  0  0  0  0  0  0  0  0  0
   21.1957   18.0450   22.2098 H   0  0  0  0  0  0  0  0  0  0  0  0
   21.3756   19.4826   21.2059 H   0  0  0  0  0  0  0  0  0  0  0  0
   19.3173   19.0721   21.7967 C   0  0  0  0  0  0  0  0  0  0  0  0
   18.7858   18.6654   22.6684 H   0  0  0  0  0  0  0  0  0  0  0  0
   18.9658   20.1047   21.6632 H   0  0  0  0  0  0  0  0  0  0  0  0
   18.9667   18.2420   20.5453 C   0  0  0  0  0  0  0  0  0  0  0  0
   19.2804   17.1968   20.6665 H   0  0  0  0  0  0  0  0  0  0  0  0
   17.8837   18.2521   20.3657 H   0  0  0  0  0  0  0  0  0  0  0  0
   19.4620   18.6477   19.6533 H   0  0  0  0  0  0  0  0  0  0  0  0
  1  2  1  0  0  0  0
  1  3  2  0  0  0  0
  1  4  1  0  0  0  0
  4  5  1  0  0  0  0
  4  6  1  0  0  0  0
  4  7  1  0  0  0  0
  7  8  1  0  0  0  0
  7  9  1  0  0  0  0
  7 10  1  0  0  0  0
 10 11  1  0  0  0  0
 10 12  1  0  0  0  0
 10 13  1  0  0  0  0
M  END
> <VConfSearch Rank>
449

> <Conf_Id>
0

> <Delta U+W>
0.000

> <U+W>
-58.332

> <U>
8.390

> <W>
-66.722

> <W(PB)>
-68.455

> <W(SA)>
1.733

> <Valence>
6.333

> <Coulomb>
1.215

> <VdW>
0.842

> <VdW6>
-3.344

> <VdW12>
4.186

> <Bond>
0.091

> <Angle>
2.713

> <Pdih>
3.529

> <Idih>
0.000

> <Tether>
0.000

$$$$
VeraChem MOL file


 13 12  0  0  0  0  0  0  0  0999 V2000     
   19.7735   20.0376   19.9834 C   0  0  0  0  0  0  0  0  0  0  0  0
   19.1246   21.0642   20.0036 O   0  5  0  0  0  0  0  0  0  0  0  0
   19.9209   19.3565   18.9886 O   0  0  0  0  0  0  0  0  0  0  0  0
   20.4225   19.5688   21.2813 C   0  0  0  0  0  0  0  0  0  0  0  0
   20.6970   20.4556   21.8655 H   0  0  0  0  0  0  0  0  0  0  0  0
   21.3537   19.0473   21.0284 H   0  0  0  0  0  0  0  0  0  0  0  0
   19.5041   18.6442   22.1164 C   0  0  0  0  0  0  0  0  0  0  0  0
   18.5709   19.1733   22.3552 H   0  0  0  0  0  0  0  0  0  0  0  0
   19.2278   17.7647   21.5180 H   0  0  0  0  0  0  0  0  0  0  0  0
   20.1884   18.1881   23.4206 C   0  0  0  0  0  0  0  0  0  0  0  0
   19.5224   17.5341   23.9985 H   0  0  0  0  0  0  0  0  0  0  0  0
   21.1094   17.6301   23.2065 H   0  0  0  0  0  0  0  0  0  0  0  0
   20.4475   19.0496   24.0502 H   0  0  0  0  0  0  0  0  0  0  0  0
  1  2  1  0  0  0  0
  1  3  2  0  0  0  0
  1  4  1  0  0  0  0
  4  5  1  0  0  0  0
  4  6  1  0  0  0  0
  4  7  1  0  0  0  0
  7  8  1  0  0  0  0
  7  9  1  0  0  0  0
  7 10  1  0  0  0  0
 10 11  1  0  0  0  0
 10 12  1  0  0  0  0
 10 13  1  0  0  0  0
M  END
> <VConfSearch Rank>
450

> <Conf_Id>
1

> <Delta U+W>
-1.339

> <U+W>
-59.672

> <U>
7.389

> <W>
-67.061

> <W(PB)>
-68.767

> <W(SA)>
1.707

> <Valence>
5.822

> <Coulomb>
1.255

> <VdW>
0.312

> <VdW6>
-3.061

> <VdW12>
3.372

> <Bond>
0.059

> <Angle>
2.241

> <Pdih>
3.522

> <Idih>
0.000

> <Tether>
0.000

$$$$
VeraChem MOL file


 13 12  0  0  0  0  0  0  0  0999 V2000     
   20.0464   17.5795   23.1272 C   0  0  0  0  0  0  0  0  0  0  0  0
   21.0167   16.8485   23.1425 O   0  5  0  0  0  0  0  0  0  0  0  0
   19.4353   17.9020   24.1264 O   0  0  0  0  0  0  0  0  0  0  0  0
   19.5497   18.0892   21.7766 C   0  0  0  0  0  0  0  0  0  0  0  0
   18.5205   18.4498   21.8939 H   0  0  0  0  0  0  0  0  0  0  0  0
   19.5084   17.2291   21.0976 H   0  0  0  0  0  0  0  0  0  0  0  0
   20.4357   19.1972   21.1516 C   0  0  0  0  0  0  0  0  0  0  0  0
   21.4726   18.8405   21.0767 H   0  0  0  0  0  0  0  0  0  0  0  0
   20.0951   19.3947   20.1260 H   0  0  0  0  0  0  0  0  0  0  0  0
   20.3940   20.5116   21.9582 C   0  0  0  0  0  0  0  0  0  0  0  0
   20.7706   20.3606   22.9786 H   0  0  0  0  0  0  0  0  0  0  0  0
   21.0149   21.2796   21.4789 H   0  0  0  0  0  0  0  0  0  0  0  0
   19.3685   20.8977   22.0265 H   0  0  0  0  0  0  0  0  0  0  0  0
  1  2  1  0  0  0  0
  1  3  2  0  0  0  0
  1  4  1  0  0  0  0
  4  5  1  0  0  0  0
  4  6  1  0  0  0  0
  4  7  1  0  0  0  0
  7  8  1  0  0  0  0
  7  9  1  0  0  0  0
  7 10  1  0  0  0  0
 10 11  1  0  0  0  0
 10 12  1  0  0  0  0
 10 13  1  0  0  0  0
M  END
> <VConfSearch Rank>
451

> <Conf_Id>
4

> <Delta U+W>
0.281

> <U+W>
-58.051

> <U>
9.781

> <W>
-67.832

> <W(PB)>
-69.535

> <W(SA)>
1.703

> <Valence>
6.123

> <Coulomb>
3.449

> <VdW>
0.209

> <VdW6>
-3.762

> <VdW12>
3.972

> <Bond>
0.078

> <Angle>
2.428

> <Pdih>
3.616

> <Idih>
0.002

> <Tether>
0.000

$$$$
VeraChem MOL file


 13 12  0  0  0  0  0  0  0  0999 V2000     
   18.3802   18.5271   21.9939 C   0  0  0  0  0  0  0  0  0  0  0  0
   18.2310   17.4558   22.5469 O   0  5  0  0  0  0  0  0  0  0  0  0
   17.5959   19.4492   22.0976 O   0  0  0  0  0  0  0  0  0  0  0  0
   19.5978   18.7151   21.0922 C   0  0  0  0  0  0  0  0  0  0  0  0
   19.2425   19.1460   20.1486 H   0  0  0  0  0  0  0  0  0  0  0  0
   20.0137   17.7286   20.8532 H   0  0  0  0  0  0  0  0  0  0  0  0
   20.6979   19.6270   21.6934 C   0  0  0  0  0  0  0  0  0  0  0  0
   21.4580   19.8278   20.9261 H   0  0  0  0  0  0  0  0  0  0  0  0
   20.2617   20.5978   21.9674 H   0  0  0  0  0  0  0  0  0  0  0  0
   21.3798   18.9960   22.9250 C   0  0  0  0  0  0  0  0  0  0  0  0
   21.8422   18.0340   22.6677 H   0  0  0  0  0  0  0  0  0  0  0  0
   22.1653   19.6572   23.3135 H   0  0  0  0  0  0  0  0  0  0  0  0
   20.6551   18.8218   23.7314 H   0  0  0  0  0  0  0  0  0  0  0  0
  1  2  1  0  0  0  0
  1  3  2  0  0  0  0
  1  4  1  0  0  0  0
  4  5  1  0  0  0  0
  4  6  1  0  0  0  0
  4  7  1  0  0  0  0
  7  8  1  0  0  0  0
  7  9  1  0  0  0  0
  7 10  1  0  0  0  0
 10 11  1  0  0  0  0
 10 12  1  0  0  0  0
 10 13  1  0  0  0  0
M  END
> <VConfSearch Rank>
452

> <Conf_Id>
36

> <Delta U+W>
0.272

> <U+W>
-58.060

> <U>
9.781

> <W>
-67.841

> <W(PB)>
-69.537

> <W(SA)>
1.696

> <Valence>
6.123

> <Coulomb>
3.449

> <VdW>
0.209

> <VdW6>
-3.762

> <VdW12>
3.972

> <Bond>
0.078

> <Angle>
2.428

> <Pdih>
3.616

> <Idih>
0.002

> <Tether>
0.000

$$$$
VeraChem MOL file


 13 12  0  0  0  0  0  0  0  0999 V2000     
   20.2970   20.8165   22.9050 C   0  0  0  0  0  0  0  0  0  0  0  0
   19.5119   21.5365   22.3198 O   0  5  0  0  0  0  0  0  0  0  0  0
   20.9754   21.1976   23.8374 O   0  0  0  0  0  0  0  0  0  0  0  0
   20.4611   19.3586   22.4710 C   0  0  0  0  0  0  0  0  0  0  0  0
   20.2450   18.7306   23.3435 H   0  0  0  0  0  0  0  0  0  0  0  0
   21.5183   19.2079   22.2220 H   0  0  0  0  0  0  0  0  0  0  0  0
   19.5750   18.9170   21.2770 C   0  0  0  0  0  0  0  0  0  0  0  0
   18.5161   19.0716   21.5275 H   0  0  0  0  0  0  0  0  0  0  0  0
   19.7910   19.5495   20.4046 H   0  0  0  0  0  0  0  0  0  0  0  0
   19.8079   17.4371   20.9117 C   0  0  0  0  0  0  0  0  0  0  0  0
   19.5688   16.7809   21.7589 H   0  0  0  0  0  0  0  0  0  0  0  0
   19.1729   17.1433   20.0657 H   0  0  0  0  0  0  0  0  0  0  0  0
   20.8539   17.2626   20.6270 H   0  0  0  0  0  0  0  0  0  0  0  0
  1  2  1  0  0  0  0
  1  3  2  0  0  0  0
  1  4  1  0  0  0  0
  4  5  1  0  0  0  0
  4  6  1  0  0  0  0
  4  7  1  0  0  0  0
  7  8  1  0  0  0  0
  7  9  1  0  0  0  0
  7 10  1  0  0  0  0
 10 11  1  0  0  0  0
 10 12  1  0  0  0  0
 10 13  1  0  0  0  0
M  END
> <VConfSearch Rank>
453

> <Conf_Id>
0

> <Delta U+W>
0.000

> <U+W>
-58.332

> <U>
8.390

> <W>
-66.722

> <W(PB)>
-68.455

> <W(SA)>
1.733

> <Valence>
6.333

> <Coulomb>
1.215

> <VdW>
0.842

> <VdW6>
-3.344

> <VdW12>
4.186

> <Bond>
0.091

> <Angle>
2.713

> <Pdih>
3.529

> <Idih>
0.000

> <Tether>
0.000

$$$$
VeraChem MOL file


 13 12  0  0  0  0  0  0  0  0999 V2000     
   21.7420   18.3235   20.8960 C   0  0  0  0  0  0  0  0  0  0  0  0
   22.7643   18.3994   21.5477 O   0  5  0  0  0  0  0  0  0  0  0  0
   21.7213   18.2851   19.6822 O   0  0  0  0  0  0  0  0  0  0  0  0
   20.4120   18.2938   21.6414 C   0  0  0  0  0  0  0  0  0  0  0  0
   20.5681   17.7805   22.5981 H   0  0  0  0  0  0  0  0  0  0  0  0
   19.7081   17.6863   21.0597 H   0  0  0  0  0  0  0  0  0  0  0  0
   19.8236   19.7048   21.8839 C   0  0  0  0  0  0  0  0  0  0  0  0
   20.5410   20.3072   22.4586 H   0  0  0  0  0  0  0  0  0  0  0  0
   19.6807   20.2129   20.9199 H   0  0  0  0  0  0  0  0  0  0  0  0
   18.4807   19.6405   22.6387 C   0  0  0  0  0  0  0  0  0  0  0  0
   18.0797   20.6495   22.8011 H   0  0  0  0  0  0  0  0  0  0  0  0
   17.7371   19.0677   22.0692 H   0  0  0  0  0  0  0  0  0  0  0  0
   18.6040   19.1628   23.6196 H   0  0  0  0  0  0  0  0  0  0  0  0
  1  2  1  0  0  0  0
  1  3  2  0  0  0  0
  1  4  1  0  0  0  0
  4  5  1  0  0  0  0
  4  6  1  0  0  0  0
  4  7  1  0  0  0  0
  7  8  1  0  0  0  0
  7  9  1  0  0  0  0
  7 10  1  0  0  0  0
 10 11  1  0  0  0  0
 10 12  1  0  0  0  0
 10 13  1  0  0  0  0
M  END
> <VConfSearch Rank>
454

> <Conf_Id>
1

> <Delta U+W>
-1.339

> <U+W>
-59.672

> <U>
7.389

> <W>
-67.061

> <W(PB)>
-68.767

> <W(SA)>
1.707

> <Valence>
5.822

> <Coulomb>
1.255

> <VdW>
0.312

> <VdW6>
-3.061

> <VdW12>
3.372

> <Bond>
0.059

> <Angle>
2.241

> <Pdih>
3.522

> <Idih>
0.000

> <Tether>
0.000

$$$$
VeraChem MOL file


 13 12  0  0  0  0  0  0  0  0999 V2000     
   20.0291   19.7841   23.5891 C   0  0  0  0  0  0  0  0  0  0  0  0
   20.8959   19.4949   24.3899 O   0  5  0  0  0  0  0  0  0  0  0  0
   19.6014   20.9118   23.4434 O   0  0  0  0  0  0  0  0  0  0  0  0
   19.4222   18.6635   22.7485 C   0  0  0  0  0  0  0  0  0  0  0  0
   18.4699   19.0133   22.3315 H   0  0  0  0  0  0  0  0  0  0  0  0
   19.1854   17.8363   23.4283 H   0  0  0  0  0  0  0  0  0  0  0  0
   20.3454   18.1501   21.6139 C   0  0  0  0  0  0  0  0  0  0  0  0
   21.3114   17.8408   22.0373 H   0  0  0  0  0  0  0  0  0  0  0  0
   19.8973   17.2542   21.1629 H   0  0  0  0  0  0  0  0  0  0  0  0
   20.5733   19.2076   20.5141 C   0  0  0  0  0  0  0  0  0  0  0  0
   21.0619   20.1024   20.9221 H   0  0  0  0  0  0  0  0  0  0  0  0
   21.2137   18.8061   19.7180 H   0  0  0  0  0  0  0  0  0  0  0  0
   19.6212   19.5147   20.0617 H   0  0  0  0  0  0  0  0  0  0  0  0
  1  2  1  0  0  0  0
  1  3  2  0  0  0  0
  1  4  1  0  0  0  0
  4  5  1  0  0  0  0
  4  6  1  0  0  0  0
  4  7  1  0  0  0  0
  7  8  1  0  0  0  0
  7  9  1  0  0  0  0
  7 10  1  0  0  0  0
 10 11  1  0  0  0  0
 10 12  1  0  0  0  0
 10 13  1  0  0  0  0
M  END
> <VConfSearch Rank>
455

> <Conf_Id>
4

> <Delta U+W>
0.281

> <U+W>
-58.051

> <U>
9.781

> <W>
-67.832

> <W(PB)>
-69.535

> <W(SA)>
1.703

> <Valence>
6.123

> <Coulomb>
3.449

> <VdW>
0.209

> <VdW6>
-3.762

> <VdW12>
3.972

> <Bond>
0.078

> <Angle>
2.428

> <Pdih>
3.616

> <Idih>
0.002

> <Tether>
0.000

$$$$
VeraChem MOL file


 13 12  0  0  0  0  0  0  0  0999 V2000     
   19.6397   19.3901   20.3219 C   0  0  0  0  0  0  0  0  0  0  0  0
   19.4329   20.5848   20.2462 O   0  5  0  0  0  0  0  0  0  0  0  0
   20.1676   18.7446   19.4383 O   0  0  0  0  0  0  0  0  0  0  0  0
   19.1810   18.6523   21.5773 C   0  0  0  0  0  0  0  0  0  0  0  0
   18.6363   17.7584   21.2506 H   0  0  0  0  0  0  0  0  0  0  0  0
   18.4614   19.2836   22.1128 H   0  0  0  0  0  0  0  0  0  0  0  0
   20.3345   18.2352   22.5254 C   0  0  0  0  0  0  0  0  0  0  0  0
   19.9338   17.5857   23.3157 H   0  0  0  0  0  0  0  0  0  0  0  0
   21.0704   17.6381   21.9688 H   0  0  0  0  0  0  0  0  0  0  0  0
   21.0322   19.4479   23.1754 C   0  0  0  0  0  0  0  0  0  0  0  0
   20.3181   20.0469   23.7557 H   0  0  0  0  0  0  0  0  0  0  0  0
   21.8291   19.1177   23.8543 H   0  0  0  0  0  0  0  0  0  0  0  0
   21.4841   20.0979   22.4144 H   0  0  0  0  0  0  0  0  0  0  0  0
  1  2  1  0  0  0  0
  1  3  2  0  0  0  0
  1  4  1  0  0  0  0
  4  5  1  0  0  0  0
  4  6  1  0  0  0  0
  4  7  1  0  0  0  0
  7  8  1  0  0  0  0
  7  9  1  0  0  0  0
  7 10  1  0  0  0  0
 10 11  1  0  0  0  0
 10 12  1  0  0  0  0
 10 13  1  0  0  0  0
M  END
> <VConfSearch Rank>
456

> <Conf_Id>
36

> <Delta U+W>
0.272

> <U+W>
-58.060

> <U>
9.781

> <W>
-67.841

> <W(PB)>
-69.537

> <W(SA)>
1.696

> <Valence>
6.123

> <Coulomb>
3.449

> <VdW>
0.209

> <VdW6>
-3.762

> <VdW12>
3.972

> <Bond>
0.078

> <Angle>
2.428

> <Pdih>
3.616

> <Idih>
0.002

> <Tether>
0.000

$$$$
VeraChem MOL file


 13 12  0  0  0  0  0  0  0  0999 V2000     
   21.3569   20.5262   22.4845 C   0  0  0  0  0  0  0  0  0  0  0  0
   20.9401   20.6997   23.6130 O   0  5  0  0  0  0  0  0  0  0  0  0
   22.2936   21.1461   22.0228 O   0  0  0  0  0  0  0  0  0  0  0  0
   20.6923   19.4870   21.5795 C   0  0  0  0  0  0  0  0  0  0  0  0
   21.4682   18.7755   21.2726 H   0  0  0  0  0  0  0  0  0  0  0  0
   20.3582   20.0069   20.6737 H   0  0  0  0  0  0  0  0  0  0  0  0
   19.5010   18.7204   22.2113 C   0  0  0  0  0  0  0  0  0  0  0  0
   19.8372   18.2025   23.1205 H   0  0  0  0  0  0  0  0  0  0  0  0
   18.7259   19.4353   22.5209 H   0  0  0  0  0  0  0  0  0  0  0  0
   18.8965   17.6975   21.2285 C   0  0  0  0  0  0  0  0  0  0  0  0
   19.6445   16.9522   20.9276 H   0  0  0  0  0  0  0  0  0  0  0  0
   18.0558   17.1655   21.6928 H   0  0  0  0  0  0  0  0  0  0  0  0
   18.5243   18.1949   20.3232 H   0  0  0  0  0  0  0  0  0  0  0  0
  1  2  1  0  0  0  0
  1  3  2  0  0  0  0
  1  4  1  0  0  0  0
  4  5  1  0  0  0  0
  4  6  1  0  0  0  0
  4  7  1  0  0  0  0
  7  8  1  0  0  0  0
  7  9  1  0  0  0  0
  7 10  1  0  0  0  0
 10 11  1  0  0  0  0
 10 12  1  0  0  0  0
 10 13  1  0  0  0  0
M  END
> <VConfSearch Rank>
457

> <Conf_Id>
0

> <Delta U+W>
0.000

> <U+W>
-58.332

> <U>
8.390

> <W>
-66.722

> <W(PB)>
-68.455

> <W(SA)>
1.733

> <Valence>
6.333

> <Coulomb>
1.215

> <VdW>
0.842

> <VdW6>
-3.344

> <VdW12>
4.186

> <Bond>
0.091

> <Angle>
2.713

> <Pdih>
3.529

> <Idih>
0.000

> <Tether>
0.000

$$$$
VeraChem MOL file


 13 12  0  0  0  0  0  0  0  0999 V2000     
   18.6292   20.1275   23.0263 C   0  0  0  0  0  0  0  0  0  0  0  0
   18.3289   21.2327   22.6215 O   0  5  0  0  0  0  0  0  0  0  0  0
   18.5638   19.8000   24.1941 O   0  0  0  0  0  0  0  0  0  0  0  0
   19.1333   19.1018   22.0166 C   0  0  0  0  0  0  0  0  0  0  0  0
   18.6294   19.2879   21.0604 H   0  0  0  0  0  0  0  0  0  0  0  0
   18.8230   18.1065   22.3573 H   0  0  0  0  0  0  0  0  0  0  0  0
   20.6688   19.1452   21.8268 C   0  0  0  0  0  0  0  0  0  0  0  0
   20.9690   20.1491   21.4953 H   0  0  0  0  0  0  0  0  0  0  0  0
   21.1627   18.9673   22.7924 H   0  0  0  0  0  0  0  0  0  0  0  0
   21.1462   18.0976   20.8011 C   0  0  0  0  0  0  0  0  0  0  0  0
   22.2364   18.1436   20.6802 H   0  0  0  0  0  0  0  0  0  0  0  0
   20.8836   17.0821   21.1256 H   0  0  0  0  0  0  0  0  0  0  0  0
   20.6884   18.2729   19.8186 H   0  0  0  0  0  0  0  0  0  0  0  0
  1  2  1  0  0  0  0
  1  3  2  0  0  0  0
  1  4  1  0  0  0  0
  4  5  1  0  0  0  0
  4  6  1  0  0  0  0
  4  7  1  0  0  0  0
  7  8  1  0  0  0  0
  7  9  1  0  0  0  0
  7 10  1  0  0  0  0
 10 11  1  0  0  0  0
 10 12  1  0  0  0  0
 10 13  1  0  0  0  0
M  END
> <VConfSearch Rank>
458

> <Conf_Id>
1

> <Delta U+W>
-1.339

> <U+W>
-59.672

> <U>
7.389

> <W>
-67.061

> <W(PB)>
-68.767

> <W(SA)>
1.707

> <Valence>
5.822

> <Coulomb>
1.255

> <VdW>
0.312

> <VdW6>
-3.061

> <VdW12>
3.372

> <Bond>
0.059

> <Angle>
2.241

> <Pdih>
3.522

> <Idih>
0.000

> <Tether>
0.000

$$$$
VeraChem MOL file


 13 12  0  0  0  0  0  0  0  0999 V2000     
   18.7580   18.2985   22.9422 C   0  0  0  0  0  0  0  0  0  0  0  0
   18.9455   18.1738   24.1361 O   0  5  0  0  0  0  0  0  0  0  0  0
   17.7078   18.6806   22.4657 O   0  0  0  0  0  0  0  0  0  0  0  0
   19.8913   17.9204   21.9917 C   0  0  0  0  0  0  0  0  0  0  0  0
   19.4749   17.7801   20.9866 H   0  0  0  0  0  0  0  0  0  0  0  0
   20.2766   16.9456   22.3137 H   0  0  0  0  0  0  0  0  0  0  0  0
   21.0532   18.9458   21.9499 C   0  0  0  0  0  0  0  0  0  0  0  0
   21.4355   19.1100   22.9671 H   0  0  0  0  0  0  0  0  0  0  0  0
   21.8828   18.5260   21.3648 H   0  0  0  0  0  0  0  0  0  0  0  0
   20.6297   20.2930   21.3287 C   0  0  0  0  0  0  0  0  0  0  0  0
   19.8296   20.7638   21.9153 H   0  0  0  0  0  0  0  0  0  0  0  0
   21.4788   20.9879   21.2962 H   0  0  0  0  0  0  0  0  0  0  0  0
   20.2646   20.1544   20.3026 H   0  0  0  0  0  0  0  0  0  0  0  0
  1  2  1  0  0  0  0
  1  3  2  0  0  0  0
  1  4  1  0  0  0  0
  4  5  1  0  0  0  0
  4  6  1  0  0  0  0
  4  7  1  0  0  0  0
  7  8  1  0  0  0  0
  7  9  1  0  0  0  0
  7 10  1  0  0  0  0
 10 11  1  0  0  0  0
 10 12  1  0  0  0  0
 10 13  1  0  0  0  0
M  END
> <VConfSearch Rank>
459

> <Conf_Id>
4

> <Delta U+W>
0.281

> <U+W>
-58.051

> <U>
9.781

> <W>
-67.832

> <W(PB)>
-69.535

> <W(SA)>
1.703

> <Valence>
6.123

> <Coulomb>
3.449

> <VdW>
0.209

> <VdW6>
-3.762

> <VdW12>
3.972

> <Bond>
0.078

> <Angle>
2.428

> <Pdih>
3.616

> <Idih>
0.002

> <Tether>
0.000

$$$$
VeraChem MOL file


 13 12  0  0  0  0  0  0  0  0999 V2000     
   21.6946   19.7001   21.5654 C   0  0  0  0  0  0  0  0  0  0  0  0
   21.5578   20.4220   20.5980 O   0  5  0  0  0  0  0  0  0  0  0  0
   22.4344   19.9579   22.4940 O   0  0  0  0  0  0  0  0  0  0  0  0
   20.9249   18.3821   21.6022 C   0  0  0  0  0  0  0  0  0  0  0  0
   21.6375   17.5948   21.8757 H   0  0  0  0  0  0  0  0  0  0  0  0
   20.5727   18.1525   20.5890 H   0  0  0  0  0  0  0  0  0  0  0  0
   19.7357   18.3692   22.5966 C   0  0  0  0  0  0  0  0  0  0  0  0
   19.3380   17.3477   22.6689 H   0  0  0  0  0  0  0  0  0  0  0  0
   20.0924   18.6409   23.6000 H   0  0  0  0  0  0  0  0  0  0  0  0
   18.6002   19.3231   22.1714 C   0  0  0  0  0  0  0  0  0  0  0  0
   18.2135   19.0552   21.1794 H   0  0  0  0  0  0  0  0  0  0  0  0
   17.7672   19.2752   22.8848 H   0  0  0  0  0  0  0  0  0  0  0  0
   18.9520   20.3625   22.1317 H   0  0  0  0  0  0  0  0  0  0  0  0
  1  2  1  0  0  0  0
  1  3  2  0  0  0  0
  1  4  1  0  0  0  0
  4  5  1  0  0  0  0
  4  6  1  0  0  0  0
  4  7  1  0  0  0  0
  7  8  1  0  0  0  0
  7  9  1  0  0  0  0
  7 10  1  0  0  0  0
 10 11  1  0  0  0  0
 10 12  1  0  0  0  0
 10 13  1  0  0  0  0
M  END
> <VConfSearch Rank>
460

> <Conf_Id>
36

> <Delta U+W>
0.272

> <U+W>
-58.060

> <U>
9.781

> <W>
-67.841

> <W(PB)>
-69.537

> <W(SA)>
1.696

> <Valence>
6.123

> <Coulomb>
3.449

> <VdW>
0.209

> <VdW6>
-3.762

> <VdW12>
3.972

> <Bond>
0.078

> <Angle>
2.428

> <Pdih>
3.616

> <Idih>
0.002

> <Tether>
0.000

$$$$
VeraChem MOL file


 13 12  0  0  0  0  0  0  0  0999 V2000     
   18.1236   18.0450   21.9879 C   0  0  0  0  0  0  0  0  0  0  0  0
   18.1754   17.6649   23.1412 O   0  5  0  0  0  0  0  0  0  0  0  0
   17.1662   17.8450   21.2680 O   0  0  0  0  0  0  0  0  0  0  0  0
   19.3023   18.8128   21.3863 C   0  0  0  0  0  0  0  0  0  0  0  0
   18.9192   19.7779   21.0339 H   0  0  0  0  0  0  0  0  0  0  0  0
   19.6369   18.2586   20.5013 H   0  0  0  0  0  0  0  0  0  0  0  0
   20.5018   19.0444   22.3421 C   0  0  0  0  0  0  0  0  0  0  0  0
   20.1637   19.5973   23.2297 H   0  0  0  0  0  0  0  0  0  0  0  0
   20.8823   18.0762   22.6965 H   0  0  0  0  0  0  0  0  0  0  0  0
   21.6386   19.8238   21.6508 C   0  0  0  0  0  0  0  0  0  0  0  0
   21.2912   20.8095   21.3144 H   0  0  0  0  0  0  0  0  0  0  0  0
   22.4776   19.9778   22.3420 H   0  0  0  0  0  0  0  0  0  0  0  0
   22.0156   19.2762   20.7770 H   0  0  0  0  0  0  0  0  0  0  0  0
  1  2  1  0  0  0  0
  1  3  2  0  0  0  0
  1  4  1  0  0  0  0
  4  5  1  0  0  0  0
  4  6  1  0  0  0  0
  4  7  1  0  0  0  0
  7  8  1  0  0  0  0
  7  9  1  0  0  0  0
  7 10  1  0  0  0  0
 10 11  1  0  0  0  0
 10 12  1  0  0  0  0
 10 13  1  0  0  0  0
M  END
> <VConfSearch Rank>
461

> <Conf_Id>
0

> <Delta U+W>
0.000

> <U+W>
-58.332

> <U>
8.390

> <W>
-66.722

> <W(PB)>
-68.455

> <W(SA)>
1.733

> <Valence>
6.333

> <Coulomb>
1.215

> <VdW>
0.842

> <VdW6>
-3.344

> <VdW12>
4.186

> <Bond>
0.091

> <Angle>
2.713

> <Pdih>
3.529

> <Idih>
0.000

> <Tether>
0.000

$$$$
VeraChem MOL file


 13 12  0  0  0  0  0  0  0  0999 V2000     
   19.8603   17.4283   20.4728 C   0  0  0  0  0  0  0  0  0  0  0  0
   19.2800   16.4386   20.8718 O   0  5  0  0  0  0  0  0  0  0  0  0
   20.6935   17.4072   19.5893 O   0  0  0  0  0  0  0  0  0  0  0  0
   19.5390   18.7666   21.1294 C   0  0  0  0  0  0  0  0  0  0  0  0
   18.4845   18.7546   21.4309 H   0  0  0  0  0  0  0  0  0  0  0  0
   19.6501   19.5533   20.3733 H   0  0  0  0  0  0  0  0  0  0  0  0
   20.4389   19.0715   22.3514 C   0  0  0  0  0  0  0  0  0  0  0  0
   20.3269   18.2723   23.0974 H   0  0  0  0  0  0  0  0  0  0  0  0
   21.4927   19.0713   22.0396 H   0  0  0  0  0  0  0  0  0  0  0  0
   20.0893   20.4297   22.9920 C   0  0  0  0  0  0  0  0  0  0  0  0
   20.7372   20.6280   23.8558 H   0  0  0  0  0  0  0  0  0  0  0  0
   20.2225   21.2489   22.2732 H   0  0  0  0  0  0  0  0  0  0  0  0
   19.0478   20.4438   23.3392 H   0  0  0  0  0  0  0  0  0  0  0  0
  1  2  1  0  0  0  0
  1  3  2  0  0  0  0
  1  4  1  0  0  0  0
  4  5  1  0  0  0  0
  4  6  1  0  0  0  0
  4  7  1  0  0  0  0
  7  8  1  0  0  0  0
  7  9  1  0  0  0  0
  7 10  1  0  0  0  0
 10 11  1  0  0  0  0
 10 12  1  0  0  0  0
 10 13  1  0  0  0  0
M  END
> <VConfSearch Rank>
462

> <Conf_Id>
1

> <Delta U+W>
-1.339

> <U+W>
-59.672

> <U>
7.389

> <W>
-67.061

> <W(PB)>
-68.767

> <W(SA)>
1.707

> <Valence>
5.822

> <Coulomb>
1.255

> <VdW>
0.312

> <VdW6>
-3.061

> <VdW12>
3.372

> <Bond>
0.059

> <Angle>
2.241

> <Pdih>
3.522

> <Idih>
0.000

> <Tether>
0.000

$$$$
VeraChem MOL file


 13 12  0  0  0  0  0  0  0  0999 V2000     
   20.1163   17.7974   20.6402 C   0  0  0  0  0  0  0  0  0  0  0  0
   19.2472   17.9547   19.8059 O   0  5  0  0  0  0  0  0  0  0  0  0
   21.2572   17.4816   20.3672 O   0  0  0  0  0  0  0  0  0  0  0  0
   19.7434   17.9712   22.1104 C   0  0  0  0  0  0  0  0  0  0  0  0
   20.5153   17.4951   22.7274 H   0  0  0  0  0  0  0  0  0  0  0  0
   18.8143   17.4143   22.2802 H   0  0  0  0  0  0  0  0  0  0  0  0
   19.5471   19.4463   22.5451 C   0  0  0  0  0  0  0  0  0  0  0  0
   18.8021   19.9254   21.8944 H   0  0  0  0  0  0  0  0  0  0  0  0
   19.1375   19.4697   23.5642 H   0  0  0  0  0  0  0  0  0  0  0  0
   20.8625   20.2516   22.5121 C   0  0  0  0  0  0  0  0  0  0  0  0
   21.2784   20.2868   21.4964 H   0  0  0  0  0  0  0  0  0  0  0  0
   20.6924   21.2841   22.8437 H   0  0  0  0  0  0  0  0  0  0  0  0
   21.6146   19.8019   23.1737 H   0  0  0  0  0  0  0  0  0  0  0  0
  1  2  1  0  0  0  0
  1  3  2  0  0  0  0
  1  4  1  0  0  0  0
  4  5  1  0  0  0  0
  4  6  1  0  0  0  0
  4  7  1  0  0  0  0
  7  8  1  0  0  0  0
  7  9  1  0  0  0  0
  7 10  1  0  0  0  0
 10 11  1  0  0  0  0
 10 12  1  0  0  0  0
 10 13  1  0  0  0  0
M  END
> <VConfSearch Rank>
463

> <Conf_Id>
4

> <Delta U+W>
0.281

> <U+W>
-58.051

> <U>
9.781

> <W>
-67.832

> <W(PB)>
-69.535

> <W(SA)>
1.703

> <Valence>
6.123

> <Coulomb>
3.449

> <VdW>
0.209

> <VdW6>
-3.762

> <VdW12>
3.972

> <Bond>
0.078

> <Angle>
2.428

> <Pdih>
3.616

> <Idih>
0.002

> <Tether>
0.000

$$$$
VeraChem MOL file


 13 12  0  0  0  0  0  0  0  0999 V2000     
   19.3939   17.5112   22.7489 C   0  0  0  0  0  0  0  0  0  0  0  0
   20.0860   17.1464   23.6783 O   0  5  0  0  0  0  0  0  0  0  0  0
   18.1799   17.4630   22.7588 O   0  0  0  0  0  0  0  0  0  0  0  0
   20.0841   18.0240   21.4874 C   0  0  0  0  0  0  0  0  0  0  0  0
   19.6211   17.5173   20.6323 H   0  0  0  0  0  0  0  0  0  0  0  0
   21.1352   17.7108   21.5099 H   0  0  0  0  0  0  0  0  0  0  0  0
   19.9885   19.5587   21.2909 C   0  0  0  0  0  0  0  0  0  0  0  0
   20.3741   19.8189   20.2956 H   0  0  0  0  0  0  0  0  0  0  0  0
   18.9338   19.8671   21.3113 H   0  0  0  0  0  0  0  0  0  0  0  0
   20.7808   20.3412   22.3586 C   0  0  0  0  0  0  0  0  0  0  0  0
   21.8430   20.0641   22.3404 H   0  0  0  0  0  0  0  0  0  0  0  0
   20.7085   21.4218   22.1793 H   0  0  0  0  0  0  0  0  0  0  0  0
   20.3922   20.1388   23.3655 H   0  0  0  0  0  0  0  0  0  0  0  0
  1  2  1  0  0  0  0
  1  3  2  0  0  0  0
  1  4  1  0  0  0  0
  4  5  1  0  0  0  0
  4  6  1  0  0  0  0
  4  7  1  0  0  0  0
  7  8  1  0  0  0  0
  7  9  1  0  0  0  0
  7 10  1  0  0  0  0
 10 11  1  0  0  0  0
 10 12  1  0  0  0  0
 10 13  1  0  0  0  0
M  END
> <VConfSearch Rank>
464

> <Conf_Id>
36

> <Delta U+W>
0.272

> <U+W>
-58.060

> <U>
9.781

> <W>
-67.841

> <W(PB)>
-69.537

> <W(SA)>
1.696

> <Valence>
6.123

> <Coulomb>
3.449

> <VdW>
0.209

> <VdW6>
-3.762

> <VdW12>
3.972

> <Bond>
0.078

> <Angle>
2.428

> <Pdih>
3.616

> <Idih>
0.002

> <Tether>
0.000

$$$$
VeraChem MOL file


 13 12  0  0  0  0  0  0  0  0999 V2000     
   18.1279   18.2746   21.1650 C   0  0  0  0  0  0  0  0  0  0  0  0
   17.3949   19.1050   21.6656 O   0  5  0  0  0  0  0  0  0  0  0  0
   17.7174   17.3456   20.4993 O   0  0  0  0  0  0  0  0  0  0  0  0
   19.6413   18.3767   21.3646 C   0  0  0  0  0  0  0  0  0  0  0  0
   20.1003   18.4264   20.3700 H   0  0  0  0  0  0  0  0  0  0  0  0
   19.9751   17.4392   21.8249 H   0  0  0  0  0  0  0  0  0  0  0  0
   20.1190   19.5784   22.2211 C   0  0  0  0  0  0  0  0  0  0  0  0
   19.7809   20.5168   21.7596 H   0  0  0  0  0  0  0  0  0  0  0  0
   19.6555   19.5284   23.2163 H   0  0  0  0  0  0  0  0  0  0  0  0
   21.6539   19.5991   22.3673 C   0  0  0  0  0  0  0  0  0  0  0  0
   22.1410   19.6802   21.3866 H   0  0  0  0  0  0  0  0  0  0  0  0
   21.9727   20.4554   22.9758 H   0  0  0  0  0  0  0  0  0  0  0  0
   22.0145   18.6838   22.8549 H   0  0  0  0  0  0  0  0  0  0  0  0
  1  2  1  0  0  0  0
  1  3  2  0  0  0  0
  1  4  1  0  0  0  0
  4  5  1  0  0  0  0
  4  6  1  0  0  0  0
  4  7  1  0  0  0  0
  7  8  1  0  0  0  0
  7  9  1  0  0  0  0
  7 10  1  0  0  0  0
 10 11  1  0  0  0  0
 10 12  1  0  0  0  0
 10 13  1  0  0  0  0
M  END
> <VConfSearch Rank>
465

> <Conf_Id>
0

> <Delta U+W>
0.000

> <U+W>
-58.332

> <U>
8.390

> <W>
-66.722

> <W(PB)>
-68.455

> <W(SA)>
1.733

> <Valence>
6.333

> <Coulomb>
1.215

> <VdW>
0.842

> <VdW6>
-3.344

> <VdW12>
4.186

> <Bond>
0.091

> <Angle>
2.713

> <Pdih>
3.529

> <Idih>
0.000

> <Tether>
0.000

$$$$
VeraChem MOL file


 13 12  0  0  0  0  0  0  0  0999 V2000     
   20.8260   18.3040   23.6263 C   0  0  0  0  0  0  0  0  0  0  0  0
   22.0204   18.4740   23.7674 O   0  5  0  0  0  0  0  0  0  0  0  0
   20.2032   17.4227   24.1837 O   0  0  0  0  0  0  0  0  0  0  0  0
   20.0712   19.2356   22.6840 C   0  0  0  0  0  0  0  0  0  0  0  0
   20.5490   20.2220   22.7239 H   0  0  0  0  0  0  0  0  0  0  0  0
   19.0505   19.3551   23.0672 H   0  0  0  0  0  0  0  0  0  0  0  0
   20.0353   18.7198   21.2250 C   0  0  0  0  0  0  0  0  0  0  0  0
   21.0626   18.5945   20.8552 H   0  0  0  0  0  0  0  0  0  0  0  0
   19.5637   17.7275   21.1986 H   0  0  0  0  0  0  0  0  0  0  0  0
   19.2661   19.6828   20.2987 C   0  0  0  0  0  0  0  0  0  0  0  0
   19.2515   19.3005   19.2697 H   0  0  0  0  0  0  0  0  0  0  0  0
   18.2263   19.8010   20.6312 H   0  0  0  0  0  0  0  0  0  0  0  0
   19.7368   20.6747   20.2851 H   0  0  0  0  0  0  0  0  0  0  0  0
  1  2  1  0  0  0  0
  1  3  2  0  0  0  0
  1  4  1  0  0  0  0
  4  5  1  0  0  0  0
  4  6  1  0  0  0  0
  4  7  1  0  0  0  0
  7  8  1  0  0  0  0
  7  9  1  0  0  0  0
  7 10  1  0  0  0  0
 10 11  1  0  0  0  0
 10 12  1  0  0  0  0
 10 13  1  0  0  0  0
M  END
> <VConfSearch Rank>
466

> <Conf_Id>
1

> <Delta U+W>
-1.339

> <U+W>
-59.672

> <U>
7.389

> <W>
-67.061

> <W(PB)>
-68.767

> <W(SA)>
1.707

> <Valence>
5.822

> <Coulomb>
1.255

> <VdW>
0.312

> <VdW6>
-3.061

> <VdW12>
3.372

> <Bond>
0.059

> <Angle>
2.241

> <Pdih>
3.522

> <Idih>
0.000

> <Tether>
0.000

$$$$
VeraChem MOL file


 13 12  0  0  0  0  0  0  0  0999 V2000     
   21.0885   18.6336   23.4705 C   0  0  0  0  0  0  0  0  0  0  0  0
   20.7275   17.6865   24.1403 O   0  5  0  0  0  0  0  0  0  0  0  0
   22.2553   18.9015   23.2638 O   0  0  0  0  0  0  0  0  0  0  0  0
   20.0184   19.5544   22.8892 C   0  0  0  0  0  0  0  0  0  0  0  0
   20.4891   20.5026   22.6018 H   0  0  0  0  0  0  0  0  0  0  0  0
   19.3111   19.7835   23.6952 H   0  0  0  0  0  0  0  0  0  0  0  0
   19.2501   18.9530   21.6844 C   0  0  0  0  0  0  0  0  0  0  0  0
   18.8175   17.9841   21.9708 H   0  0  0  0  0  0  0  0  0  0  0  0
   18.4085   19.6114   21.4294 H   0  0  0  0  0  0  0  0  0  0  0  0
   20.1464   18.7765   20.4413 C   0  0  0  0  0  0  0  0  0  0  0  0
   20.9759   18.0871   20.6474 H   0  0  0  0  0  0  0  0  0  0  0  0
   19.5681   18.3680   19.6023 H   0  0  0  0  0  0  0  0  0  0  0  0
   20.5718   19.7377   20.1245 H   0  0  0  0  0  0  0  0  0  0  0  0
  1  2  1  0  0  0  0
  1  3  2  0  0  0  0
  1  4  1  0  0  0  0
  4  5  1  0  0  0  0
  4  6  1  0  0  0  0
  4  7  1  0  0  0  0
  7  8  1  0  0  0  0
  7  9  1  0  0  0  0
  7 10  1  0  0  0  0
 10 11  1  0  0  0  0
 10 12  1  0  0  0  0
 10 13  1  0  0  0  0
M  END
> <VConfSearch Rank>
467

> <Conf_Id>
4

> <Delta U+W>
0.281

> <U+W>
-58.051

> <U>
9.781

> <W>
-67.832

> <W(PB)>
-69.535

> <W(SA)>
1.703

> <Valence>
6.123

> <Coulomb>
3.449

> <VdW>
0.209

> <VdW6>
-3.762

> <VdW12>
3.972

> <Bond>
0.078

> <Angle>
2.428

> <Pdih>
3.616

> <Idih>
0.002

> <Tether>
0.000

$$$$
VeraChem MOL file


 13 12  0  0  0  0  0  0  0  0999 V2000     
   21.8914   19.2136   21.9523 C   0  0  0  0  0  0  0  0  0  0  0  0
   22.4285   18.2229   21.4985 O   0  5  0  0  0  0  0  0  0  0  0  0
   22.2673   20.3452   21.7195 O   0  0  0  0  0  0  0  0  0  0  0  0
   20.7035   19.0285   22.8933 C   0  0  0  0  0  0  0  0  0  0  0  0
   20.8801   19.6613   23.7712 H   0  0  0  0  0  0  0  0  0  0  0  0
   20.6945   17.9904   23.2478 H   0  0  0  0  0  0  0  0  0  0  0  0
   19.3334   19.3899   22.2644 C   0  0  0  0  0  0  0  0  0  0  0  0
   18.5627   19.3735   23.0471 H   0  0  0  0  0  0  0  0  0  0  0  0
   19.3668   20.4174   21.8756 H   0  0  0  0  0  0  0  0  0  0  0  0
   18.9270   18.4190   21.1366 C   0  0  0  0  0  0  0  0  0  0  0  0
   18.8659   17.3881   21.5093 H   0  0  0  0  0  0  0  0  0  0  0  0
   17.9454   18.6909   20.7271 H   0  0  0  0  0  0  0  0  0  0  0  0
   19.6545   18.4424   20.3144 H   0  0  0  0  0  0  0  0  0  0  0  0
  1  2  1  0  0  0  0
  1  3  2  0  0  0  0
  1  4  1  0  0  0  0
  4  5  1  0  0  0  0
  4  6  1  0  0  0  0
  4  7  1  0  0  0  0
  7  8  1  0  0  0  0
  7  9  1  0  0  0  0
  7 10  1  0  0  0  0
 10 11  1  0  0  0  0
 10 12  1  0  0  0  0
 10 13  1  0  0  0  0
M  END
> <VConfSearch Rank>
468

> <Conf_Id>
36

> <Delta U+W>
0.272

> <U+W>
-58.060

> <U>
9.781

> <W>
-67.841

> <W(PB)>
-69.537

> <W(SA)>
1.696

> <Valence>
6.123

> <Coulomb>
3.449

> <VdW>
0.209

> <VdW6>
-3.762

> <VdW12>
3.972

> <Bond>
0.078

> <Angle>
2.428

> <Pdih>
3.616

> <Idih>
0.002

> <Tether>
0.000

$$$$
VeraChem MOL file


 13 12  0  0  0  0  0  0  0  0999 V2000     
   20.0391   18.4856   19.7515 C   0  0  0  0  0  0  0  0  0  0  0  0
   20.9878   19.1449   19.3739 O   0  5  0  0  0  0  0  0  0  0  0  0
   19.3882   17.7780   19.0096 O   0  0  0  0  0  0  0  0  0  0  0  0
   19.6207   18.5280   21.2225 C   0  0  0  0  0  0  0  0  0  0  0  0
   19.6503   17.4994   21.6014 H   0  0  0  0  0  0  0  0  0  0  0  0
   18.5736   18.8516   21.2563 H   0  0  0  0  0  0  0  0  0  0  0  0
   20.4804   19.4445   22.1318 C   0  0  0  0  0  0  0  0  0  0  0  0
   21.5298   19.1203   22.0943 H   0  0  0  0  0  0  0  0  0  0  0  0
   20.4519   20.4742   21.7487 H   0  0  0  0  0  0  0  0  0  0  0  0
   19.9858   19.4235   23.5922 C   0  0  0  0  0  0  0  0  0  0  0  0
   20.0340   18.4088   24.0088 H   0  0  0  0  0  0  0  0  0  0  0  0
   20.6056   20.0772   24.2196 H   0  0  0  0  0  0  0  0  0  0  0  0
   18.9473   19.7735   23.6604 H   0  0  0  0  0  0  0  0  0  0  0  0
  1  2  1  0  0  0  0
  1  3  2  0  0  0  0
  1  4  1  0  0  0  0
  4  5  1  0  0  0  0
  4  6  1  0  0  0  0
  4  7  1  0  0  0  0
  7  8  1  0  0  0  0
  7  9  1  0  0  0  0
  7 10  1  0  0  0  0
 10 11  1  0  0  0  0
 10 12  1  0  0  0  0
 10 13  1  0  0  0  0
M  END
> <VConfSearch Rank>
469

> <Conf_Id>
0

> <Delta U+W>
0.000

> <U+W>
-58.332

> <U>
8.390

> <W>
-66.722

> <W(PB)>
-68.455

> <W(SA)>
1.733

> <Valence>
6.333

> <Coulomb>
1.215

> <VdW>
0.842

> <VdW6>
-3.344

> <VdW12>
4.186

> <Bond>
0.091

> <Angle>
2.713

> <Pdih>
3.529

> <Idih>
0.000

> <Tether>
0.000

$$$$
VeraChem MOL file


 13 12  0  0  0  0  0  0  0  0999 V2000     
   21.6406   18.2146   22.8583 C   0  0  0  0  0  0  0  0  0  0  0  0
   22.4382   17.5997   22.1792 O   0  5  0  0  0  0  0  0  0  0  0  0
   21.4910   18.0305   24.0495 O   0  0  0  0  0  0  0  0  0  0  0  0
   20.7669   19.2610   22.1748 C   0  0  0  0  0  0  0  0  0  0  0  0
   21.3445   19.7054   21.3550 H   0  0  0  0  0  0  0  0  0  0  0  0
   20.5634   20.0606   22.8974 H   0  0  0  0  0  0  0  0  0  0  0  0
   19.4377   18.6793   21.6356 C   0  0  0  0  0  0  0  0  0  0  0  0
   19.6537   17.8731   20.9206 H   0  0  0  0  0  0  0  0  0  0  0  0
   18.8724   18.2285   22.4633 H   0  0  0  0  0  0  0  0  0  0  0  0
   18.5782   19.7610   20.9511 C   0  0  0  0  0  0  0  0  0  0  0  0
   17.6409   19.3300   20.5757 H   0  0  0  0  0  0  0  0  0  0  0  0
   18.3239   20.5643   21.6551 H   0  0  0  0  0  0  0  0  0  0  0  0
   19.1112   20.2061   20.1005 H   0  0  0  0  0  0  0  0  0  0  0  0
  1  2  1  0  0  0  0
  1  3  2  0  0  0  0
  1  4  1  0  0  0  0
  4  5  1  0  0  0  0
  4  6  1  0  0  0  0
  4  7  1  0  0  0  0
  7  8  1  0  0  0  0
  7  9  1  0  0  0  0
  7 10  1  0  0  0  0
 10 11  1  0  0  0  0
 10 12  1  0  0  0  0
 10 13  1  0  0  0  0
M  END
> <VConfSearch Rank>
470

> <Conf_Id>
1

> <Delta U+W>
-1.339

> <U+W>
-59.672

> <U>
7.389

> <W>
-67.061

> <W(PB)>
-68.767

> <W(SA)>
1.707

> <Valence>
5.822

> <Coulomb>
1.255

> <VdW>
0.312

> <VdW6>
-3.061

> <VdW12>
3.372

> <Bond>
0.059

> <Angle>
2.241

> <Pdih>
3.522

> <Idih>
0.000

> <Tether>
0.000

$$$$
VeraChem MOL file


 13 12  0  0  0  0  0  0  0  0999 V2000     
   20.0711   19.3122   23.7546 C   0  0  0  0  0  0  0  0  0  0  0  0
   19.0233   19.0601   24.3154 O   0  5  0  0  0  0  0  0  0  0  0  0
   21.1616   19.0983   24.2453 O   0  0  0  0  0  0  0  0  0  0  0  0
   20.0112   19.9652   22.3759 C   0  0  0  0  0  0  0  0  0  0  0  0
   20.9889   20.4110   22.1554 H   0  0  0  0  0  0  0  0  0  0  0  0
   19.2928   20.7915   22.4363 H   0  0  0  0  0  0  0  0  0  0  0  0
   19.5942   19.0019   21.2350 C   0  0  0  0  0  0  0  0  0  0  0  0
   18.6338   18.5297   21.4852 H   0  0  0  0  0  0  0  0  0  0  0  0
   19.4310   19.5815   20.3162 H   0  0  0  0  0  0  0  0  0  0  0  0
   20.6543   17.9146   20.9634 C   0  0  0  0  0  0  0  0  0  0  0  0
   20.8111   17.2860   21.8499 H   0  0  0  0  0  0  0  0  0  0  0  0
   20.3376   17.2630   20.1386 H   0  0  0  0  0  0  0  0  0  0  0  0
   21.6173   18.3652   20.6896 H   0  0  0  0  0  0  0  0  0  0  0  0
  1  2  1  0  0  0  0
  1  3  2  0  0  0  0
  1  4  1  0  0  0  0
  4  5  1  0  0  0  0
  4  6  1  0  0  0  0
  4  7  1  0  0  0  0
  7  8  1  0  0  0  0
  7  9  1  0  0  0  0
  7 10  1  0  0  0  0
 10 11  1  0  0  0  0
 10 12  1  0  0  0  0
 10 13  1  0  0  0  0
M  END
> <VConfSearch Rank>
471

> <Conf_Id>
4

> <Delta U+W>
0.281

> <U+W>
-58.051

> <U>
9.781

> <W>
-67.832

> <W(PB)>
-69.535

> <W(SA)>
1.703

> <Valence>
6.123

> <Coulomb>
3.449

> <VdW>
0.209

> <VdW6>
-3.762

> <VdW12>
3.972

> <Bond>
0.078

> <Angle>
2.428

> <Pdih>
3.616

> <Idih>
0.002

> <Tether>
0.000

$$$$
VeraChem MOL file


 13 12  0  0  0  0  0  0  0  0999 V2000     
   20.4863   19.7544   23.5638 C   0  0  0  0  0  0  0  0  0  0  0  0
   19.4541   20.1224   24.0882 O   0  5  0  0  0  0  0  0  0  0  0  0
   21.4250   19.2945   24.1831 O   0  0  0  0  0  0  0  0  0  0  0  0
   20.6278   19.9101   22.0517 C   0  0  0  0  0  0  0  0  0  0  0  0
   21.5999   20.3802   21.8609 H   0  0  0  0  0  0  0  0  0  0  0  0
   19.8620   20.6110   21.6974 H   0  0  0  0  0  0  0  0  0  0  0  0
   20.5366   18.5772   21.2652 C   0  0  0  0  0  0  0  0  0  0  0  0
   20.7976   18.7610   20.2140 H   0  0  0  0  0  0  0  0  0  0  0  0
   21.2800   17.8682   21.6558 H   0  0  0  0  0  0  0  0  0  0  0  0
   19.1300   17.9471   21.3325 C   0  0  0  0  0  0  0  0  0  0  0  0
   18.3737   18.6313   20.9260 H   0  0  0  0  0  0  0  0  0  0  0  0
   19.0945   17.0171   20.7503 H   0  0  0  0  0  0  0  0  0  0  0  0
   18.8535   17.7086   22.3681 H   0  0  0  0  0  0  0  0  0  0  0  0
  1  2  1  0  0  0  0
  1  3  2  0  0  0  0
  1  4  1  0  0  0  0
  4  5  1  0  0  0  0
  4  6  1  0  0  0  0
  4  7  1  0  0  0  0
  7  8  1  0  0  0  0
  7  9  1  0  0  0  0
  7 10  1  0  0  0  0
 10 11  1  0  0  0  0
 10 12  1  0  0  0  0
 10 13  1  0  0  0  0
M  END
> <VConfSearch Rank>
472

> <Conf_Id>
36

> <Delta U+W>
0.272

> <U+W>
-58.060

> <U>
9.781

> <W>
-67.841

> <W(PB)>
-69.537

> <W(SA)>
1.696

> <Valence>
6.123

> <Coulomb>
3.449

> <VdW>
0.209

> <VdW6>
-3.762

> <VdW12>
3.972

> <Bond>
0.078

> <Angle>
2.428

> <Pdih>
3.616

> <Idih>
0.002

> <Tether>
0.000

$$$$
VeraChem MOL file


 13 12  0  0  0  0  0  0  0  0999 V2000     
   19.1282   20.1126   23.4055 C   0  0  0  0  0  0  0  0  0  0  0  0
   18.6443   19.2073   24.0563 O   0  5  0  0  0  0  0  0  0  0  0  0
   19.0300   21.2808   23.7225 O   0  0  0  0  0  0  0  0  0  0  0  0
   19.9018   19.7988   22.1235 C   0  0  0  0  0  0  0  0  0  0  0  0
   20.9084   20.2185   22.2371 H   0  0  0  0  0  0  0  0  0  0  0  0
   19.4172   20.3458   21.3060 H   0  0  0  0  0  0  0  0  0  0  0  0
   20.0012   18.2944   21.7588 C   0  0  0  0  0  0  0  0  0  0  0  0
   20.4845   17.7476   22.5805 H   0  0  0  0  0  0  0  0  0  0  0  0
   18.9914   17.8750   21.6483 H   0  0  0  0  0  0  0  0  0  0  0  0
   20.7961   18.0757   20.4557 C   0  0  0  0  0  0  0  0  0  0  0  0
   21.8205   18.4591   20.5512 H   0  0  0  0  0  0  0  0  0  0  0  0
   20.8556   17.0064   20.2141 H   0  0  0  0  0  0  0  0  0  0  0  0
   20.3154   18.5876   19.6116 H   0  0  0  0  0  0  0  0  0  0  0  0
  1  2  1  0  0  0  0
  1  3  2  0  0  0  0
  1  4  1  0  0  0  0
  4  5  1  0  0  0  0
  4  6  1  0  0  0  0
  4  7  1  0  0  0  0
  7  8  1  0  0  0  0
  7  9  1  0  0  0  0
  7 10  1  0  0  0  0
 10 11  1  0  0  0  0
 10 12  1  0  0  0  0
 10 13  1  0  0  0  0
M  END
> <VConfSearch Rank>
473

> <Conf_Id>
0

> <Delta U+W>
0.000

> <U+W>
-58.332

> <U>
8.390

> <W>
-66.722

> <W(PB)>
-68.455

> <W(SA)>
1.733

> <Valence>
6.333

> <Coulomb>
1.215

> <VdW>
0.842

> <VdW6>
-3.344

> <VdW12>
4.186

> <Bond>
0.091

> <Angle>
2.713

> <Pdih>
3.529

> <Idih>
0.000

> <Tether>
0.000

$$$$
VeraChem MOL file


 13 12  0  0  0  0  0  0  0  0999 V2000     
   19.0923   20.0678   20.2201 C   0  0  0  0  0  0  0  0  0  0  0  0
   19.0977   19.4922   19.1505 O   0  5  0  0  0  0  0  0  0  0  0  0
   19.0182   21.2750   20.3321 O   0  0  0  0  0  0  0  0  0  0  0  0
   19.2037   19.2311   21.4902 C   0  0  0  0  0  0  0  0  0  0  0  0
   18.7086   18.2691   21.3097 H   0  0  0  0  0  0  0  0  0  0  0  0
   18.6430   19.7393   22.2841 H   0  0  0  0  0  0  0  0  0  0  0  0
   20.6681   19.0011   21.9357 C   0  0  0  0  0  0  0  0  0  0  0  0
   21.2222   18.5006   21.1293 H   0  0  0  0  0  0  0  0  0  0  0  0
   21.1566   19.9711   22.1040 H   0  0  0  0  0  0  0  0  0  0  0  0
   20.7464   18.1528   23.2208 C   0  0  0  0  0  0  0  0  0  0  0  0
   21.7914   18.0007   23.5207 H   0  0  0  0  0  0  0  0  0  0  0  0
   20.2242   18.6475   24.0504 H   0  0  0  0  0  0  0  0  0  0  0  0
   20.2904   17.1657   23.0683 H   0  0  0  0  0  0  0  0  0  0  0  0
  1  2  1  0  0  0  0
  1  3  2  0  0  0  0
  1  4  1  0  0  0  0
  4  5  1  0  0  0  0
  4  6  1  0  0  0  0
  4  7  1  0  0  0  0
  7  8  1  0  0  0  0
  7  9  1  0  0  0  0
  7 10  1  0  0  0  0
 10 11  1  0  0  0  0
 10 12  1  0  0  0  0
 10 13  1  0  0  0  0
M  END
> <VConfSearch Rank>
474

> <Conf_Id>
1

> <Delta U+W>
-1.339

> <U+W>
-59.672

> <U>
7.389

> <W>
-67.061

> <W(PB)>
-68.767

> <W(SA)>
1.707

> <Valence>
5.822

> <Coulomb>
1.255

> <VdW>
0.312

> <VdW6>
-3.061

> <VdW12>
3.372

> <Bond>
0.059

> <Angle>
2.241

> <Pdih>
3.522

> <Idih>
0.000

> <Tether>
0.000

$$$$
VeraChem MOL file


 13 12  0  0  0  0  0  0  0  0999 V2000     
   19.8618   18.5864   20.2661 C   0  0  0  0  0  0  0  0  0  0  0  0
   20.3255   19.3775   19.4692 O   0  5  0  0  0  0  0  0  0  0  0  0
   19.8864   17.3824   20.1060 O   0  0  0  0  0  0  0  0  0  0  0  0
   19.1812   19.1385   21.5162 C   0  0  0  0  0  0  0  0  0  0  0  0
   18.5529   18.3513   21.9509 H   0  0  0  0  0  0  0  0  0  0  0  0
   18.5063   19.9404   21.1940 H   0  0  0  0  0  0  0  0  0  0  0  0
   20.1627   19.6882   22.5828 C   0  0  0  0  0  0  0  0  0  0  0  0
   20.8148   20.4462   22.1266 H   0  0  0  0  0  0  0  0  0  0  0  0
   19.5903   20.1971   23.3704 H   0  0  0  0  0  0  0  0  0  0  0  0
   21.0223   18.5781   23.2220 C   0  0  0  0  0  0  0  0  0  0  0  0
   21.6429   18.0759   22.4679 H   0  0  0  0  0  0  0  0  0  0  0  0
   21.6908   18.9975   23.9851 H   0  0  0  0  0  0  0  0  0  0  0  0
   20.3902   17.8205   23.7036 H   0  0  0  0  0  0  0  0  0  0  0  0
  1  2  1  0  0  0  0
  1  3  2  0  0  0  0
  1  4  1  0  0  0  0
  4  5  1  0  0  0  0
  4  6  1  0  0  0  0
  4  7  1  0  0  0  0
  7  8  1  0  0  0  0
  7  9  1  0  0  0  0
  7 10  1  0  0  0  0
 10 11  1  0  0  0  0
 10 12  1  0  0  0  0
 10 13  1  0  0  0  0
M  END
> <VConfSearch Rank>
475

> <Conf_Id>
4

> <Delta U+W>
0.281

> <U+W>
-58.051

> <U>
9.781

> <W>
-67.832

> <W(PB)>
-69.535

> <W(SA)>
1.703

> <Valence>
6.123

> <Coulomb>
3.449

> <VdW>
0.209

> <VdW6>
-3.762

> <VdW12>
3.972

> <Bond>
0.078

> <Angle>
2.428

> <Pdih>
3.616

> <Idih>
0.002

> <Tether>
0.000

$$$$
VeraChem MOL file


 13 12  0  0  0  0  0  0  0  0999 V2000     
   21.2064   20.3492   22.3375 C   0  0  0  0  0  0  0  0  0  0  0  0
   20.7932   21.3427   21.7733 O   0  5  0  0  0  0  0  0  0  0  0  0
   21.7141   20.3682   23.4411 O   0  0  0  0  0  0  0  0  0  0  0  0
   21.1167   19.0107   21.6088 C   0  0  0  0  0  0  0  0  0  0  0  0
   22.0979   18.5280   21.6896 H   0  0  0  0  0  0  0  0  0  0  0  0
   20.9445   19.2018   20.5425 H   0  0  0  0  0  0  0  0  0  0  0  0
   20.0264   18.0581   22.1633 C   0  0  0  0  0  0  0  0  0  0  0  0
   20.1324   17.0738   21.6870 H   0  0  0  0  0  0  0  0  0  0  0  0
   20.1839   17.9063   23.2404 H   0  0  0  0  0  0  0  0  0  0  0  0
   18.5986   18.5869   21.9150 C   0  0  0  0  0  0  0  0  0  0  0  0
   18.4123   18.7248   20.8418 H   0  0  0  0  0  0  0  0  0  0  0  0
   17.8520   17.8809   22.3013 H   0  0  0  0  0  0  0  0  0  0  0  0
   18.4425   19.5518   22.4155 H   0  0  0  0  0  0  0  0  0  0  0  0
  1  2  1  0  0  0  0
  1  3  2  0  0  0  0
  1  4  1  0  0  0  0
  4  5  1  0  0  0  0
  4  6  1  0  0  0  0
  4  7  1  0  0  0  0
  7  8  1  0  0  0  0
  7  9  1  0  0  0  0
  7 10  1  0  0  0  0
 10 11  1  0  0  0  0
 10 12  1  0  0  0  0
 10 13  1  0  0  0  0
M  END
> <VConfSearch Rank>
476

> <Conf_Id>
36

> <Delta U+W>
0.272

> <U+W>
-58.060

> <U>
9.781

> <W>
-67.841

> <W(PB)>
-69.537

> <W(SA)>
1.696

> <Valence>
6.123

> <Coulomb>
3.449

> <VdW>
0.209

> <VdW6>
-3.762

> <VdW12>
3.972

> <Bond>
0.078

> <Angle>
2.428

> <Pdih>
3.616

> <Idih>
0.002

> <Tether>
0.000

$$$$
VeraChem MOL file


 13 12  0  0  0  0  0  0  0  0999 V2000     
   21.6483   17.6241   21.7224 C   0  0  0  0  0  0  0  0  0  0  0  0
   22.4539   18.1923   22.4335 O   0  5  0  0  0  0  0  0  0  0  0  0
   21.8779   16.5617   21.1807 O   0  0  0  0  0  0  0  0  0  0  0  0
   20.2739   18.2504   21.4788 C   0  0  0  0  0  0  0  0  0  0  0  0
   19.5201   17.5216   21.7997 H   0  0  0  0  0  0  0  0  0  0  0  0
   20.1579   18.3752   20.3957 H   0  0  0  0  0  0  0  0  0  0  0  0
   20.0259   19.6062   22.1905 C   0  0  0  0  0  0  0  0  0  0  0  0
   20.1455   19.4796   23.2756 H   0  0  0  0  0  0  0  0  0  0  0  0
   20.7841   20.3342   21.8698 H   0  0  0  0  0  0  0  0  0  0  0  0
   18.6188   20.1594   21.8876 C   0  0  0  0  0  0  0  0  0  0  0  0
   17.8412   19.4627   22.2274 H   0  0  0  0  0  0  0  0  0  0  0  0
   18.4620   21.1180   22.3991 H   0  0  0  0  0  0  0  0  0  0  0  0
   18.4849   20.3242   20.8103 H   0  0  0  0  0  0  0  0  0  0  0  0
  1  2  1  0  0  0  0
  1  3  2  0  0  0  0
  1  4  1  0  0  0  0
  4  5  1  0  0  0  0
  4  6  1  0  0  0  0
  4  7  1  0  0  0  0
  7  8  1  0  0  0  0
  7  9  1  0  0  0  0
  7 10  1  0  0  0  0
 10 11  1  0  0  0  0
 10 12  1  0  0  0  0
 10 13  1  0  0  0  0
M  END
> <VConfSearch Rank>
477

> <Conf_Id>
0

> <Delta U+W>
0.000

> <U+W>
-58.332

> <U>
8.390

> <W>
-66.722

> <W(PB)>
-68.455

> <W(SA)>
1.733

> <Valence>
6.333

> <Coulomb>
1.215

> <VdW>
0.842

> <VdW6>
-3.344

> <VdW12>
4.186

> <Bond>
0.091

> <Angle>
2.713

> <Pdih>
3.529

> <Idih>
0.000

> <Tether>
0.000

$$$$
VeraChem MOL file


 13 12  0  0  0  0  0  0  0  0999 V2000     
   18.8928   20.0417   20.3309 C   0  0  0  0  0  0  0  0  0  0  0  0
   18.4283   21.1207   20.6396 O   0  5  0  0  0  0  0  0  0  0  0  0
   18.4394   19.3445   19.4456 O   0  0  0  0  0  0  0  0  0  0  0  0
   20.0985   19.5261   21.1093 C   0  0  0  0  0  0  0  0  0  0  0  0
   20.7034   20.3891   21.4128 H   0  0  0  0  0  0  0  0  0  0  0  0
   20.7126   18.9244   20.4282 H   0  0  0  0  0  0  0  0  0  0  0  0
   19.7037   18.6894   22.3502 C   0  0  0  0  0  0  0  0  0  0  0  0
   19.0810   19.2987   23.0201 H   0  0  0  0  0  0  0  0  0  0  0  0
   19.0903   17.8336   22.0352 H   0  0  0  0  0  0  0  0  0  0  0  0
   20.9436   18.1835   23.1145 C   0  0  0  0  0  0  0  0  0  0  0  0
   20.6437   17.5930   23.9901 H   0  0  0  0  0  0  0  0  0  0  0  0
   21.5673   17.5466   22.4735 H   0  0  0  0  0  0  0  0  0  0  0  0
   21.5579   19.0229   23.4660 H   0  0  0  0  0  0  0  0  0  0  0  0
  1  2  1  0  0  0  0
  1  3  2  0  0  0  0
  1  4  1  0  0  0  0
  4  5  1  0  0  0  0
  4  6  1  0  0  0  0
  4  7  1  0  0  0  0
  7  8  1  0  0  0  0
  7  9  1  0  0  0  0
  7 10  1  0  0  0  0
 10 11  1  0  0  0  0
 10 12  1  0  0  0  0
 10 13  1  0  0  0  0
M  END
> <VConfSearch Rank>
478

> <Conf_Id>
1

> <Delta U+W>
-1.339

> <U+W>
-59.672

> <U>
7.389

> <W>
-67.061

> <W(PB)>
-68.767

> <W(SA)>
1.707

> <Valence>
5.822

> <Coulomb>
1.255

> <VdW>
0.312

> <VdW6>
-3.061

> <VdW12>
3.372

> <Bond>
0.059

> <Angle>
2.241

> <Pdih>
3.522

> <Idih>
0.000

> <Tether>
0.000

$$$$
VeraChem MOL file


 13 12  0  0  0  0  0  0  0  0999 V2000     
   19.2772   17.4262   22.3366 C   0  0  0  0  0  0  0  0  0  0  0  0
   18.4407   17.0873   21.5233 O   0  5  0  0  0  0  0  0  0  0  0  0
   20.0423   16.6501   22.8733 O   0  0  0  0  0  0  0  0  0  0  0  0
   19.3441   18.8999   22.7296 C   0  0  0  0  0  0  0  0  0  0  0  0
   19.9000   18.9876   23.6712 H   0  0  0  0  0  0  0  0  0  0  0  0
   18.3190   19.2304   22.9352 H   0  0  0  0  0  0  0  0  0  0  0  0
   19.9745   19.8166   21.6500 C   0  0  0  0  0  0  0  0  0  0  0  0
   19.4362   19.6902   20.7002 H   0  0  0  0  0  0  0  0  0  0  0  0
   19.8454   20.8659   21.9488 H   0  0  0  0  0  0  0  0  0  0  0  0
   21.4764   19.5339   21.4393 C   0  0  0  0  0  0  0  0  0  0  0  0
   21.6398   18.5036   21.0964 H   0  0  0  0  0  0  0  0  0  0  0  0
   21.8954   20.2119   20.6844 H   0  0  0  0  0  0  0  0  0  0  0  0
   22.0372   19.6763   22.3724 H   0  0  0  0  0  0  0  0  0  0  0  0
  1  2  1  0  0  0  0
  1  3  2  0  0  0  0
  1  4  1  0  0  0  0
  4  5  1  0  0  0  0
  4  6  1  0  0  0  0
  4  7  1  0  0  0  0
  7  8  1  0  0  0  0
  7  9  1  0  0  0  0
  7 10  1  0  0  0  0
 10 11  1  0  0  0  0
 10 12  1  0  0  0  0
 10 13  1  0  0  0  0
M  END
> <VConfSearch Rank>
479

> <Conf_Id>
4

> <Delta U+W>
0.281

> <U+W>
-58.051

> <U>
9.781

> <W>
-67.832

> <W(PB)>
-69.535

> <W(SA)>
1.703

> <Valence>
6.123

> <Coulomb>
3.449

> <VdW>
0.209

> <VdW6>
-3.762

> <VdW12>
3.972

> <Bond>
0.078

> <Angle>
2.428

> <Pdih>
3.616

> <Idih>
0.002

> <Tether>
0.000

$$$$
VeraChem MOL file


 13 12  0  0  0  0  0  0  0  0999 V2000     
   19.3118   19.8021   23.3629 C   0  0  0  0  0  0  0  0  0  0  0  0
   18.7578   20.8048   22.9584 O   0  5  0  0  0  0  0  0  0  0  0  0
   18.8504   19.0849   24.2282 O   0  0  0  0  0  0  0  0  0  0  0  0
   20.6762   19.4418   22.7805 C   0  0  0  0  0  0  0  0  0  0  0  0
   21.3435   19.2222   23.6224 H   0  0  0  0  0  0  0  0  0  0  0  0
   21.0860   20.3239   22.2733 H   0  0  0  0  0  0  0  0  0  0  0  0
   20.6532   18.2317   21.8117 C   0  0  0  0  0  0  0  0  0  0  0  0
   21.6855   17.9506   21.5623 H   0  0  0  0  0  0  0  0  0  0  0  0
   20.2031   17.3652   22.3163 H   0  0  0  0  0  0  0  0  0  0  0  0
   19.8843   18.5332   20.5087 C   0  0  0  0  0  0  0  0  0  0  0  0
   20.3317   19.3830   19.9767 H   0  0  0  0  0  0  0  0  0  0  0  0
   19.9038   17.6643   19.8381 H   0  0  0  0  0  0  0  0  0  0  0  0
   18.8338   18.7756   20.7174 H   0  0  0  0  0  0  0  0  0  0  0  0
  1  2  1  0  0  0  0
  1  3  2  0  0  0  0
  1  4  1  0  0  0  0
  4  5  1  0  0  0  0
  4  6  1  0  0  0  0
  4  7  1  0  0  0  0
  7  8  1  0  0  0  0
  7  9  1  0  0  0  0
  7 10  1  0  0  0  0
 10 11  1  0  0  0  0
 10 12  1  0  0  0  0
 10 13  1  0  0  0  0
M  END
> <VConfSearch Rank>
480

> <Conf_Id>
36

> <Delta U+W>
0.272

> <U+W>
-58.060

> <U>
9.781

> <W>
-67.841

> <W(PB)>
-69.537

> <W(SA)>
1.696

> <Valence>
6.123

> <Coulomb>
3.449

> <VdW>
0.209

> <VdW6>
-3.762

> <VdW12>
3.972

> <Bond>
0.078

> <Angle>
2.428

> <Pdih>
3.616

> <Idih>
0.002

> <Tether>
0.000

$$$$
VeraChem MOL file


 13 12  0  0  0  0  0  0  0  0999 V2000     
   20.8900   18.7438   19.8897 C   0  0  0  0  0  0  0  0  0  0  0  0
   19.9301   18.9962   19.1881 O   0  5  0  0  0  0  0  0  0  0  0  0
   21.9774   18.4437   19.4398 O   0  0  0  0  0  0  0  0  0  0  0  0
   20.7542   18.7977   21.4127 C   0  0  0  0  0  0  0  0  0  0  0  0
   21.4980   19.5133   21.7829 H   0  0  0  0  0  0  0  0  0  0  0  0
   21.0365   17.8122   21.8019 H   0  0  0  0  0  0  0  0  0  0  0  0
   19.3483   19.1851   21.9411 C   0  0  0  0  0  0  0  0  0  0  0  0
   19.0662   20.1716   21.5475 H   0  0  0  0  0  0  0  0  0  0  0  0
   18.6040   18.4686   21.5665 H   0  0  0  0  0  0  0  0  0  0  0  0
   19.3071   19.2135   23.4823 C   0  0  0  0  0  0  0  0  0  0  0  0
   20.0215   19.9458   23.8811 H   0  0  0  0  0  0  0  0  0  0  0  0
   18.3055   19.4892   23.8372 H   0  0  0  0  0  0  0  0  0  0  0  0
   19.5556   18.2290   23.9002 H   0  0  0  0  0  0  0  0  0  0  0  0
  1  2  1  0  0  0  0
  1  3  2  0  0  0  0
  1  4  1  0  0  0  0
  4  5  1  0  0  0  0
  4  6  1  0  0  0  0
  4  7  1  0  0  0  0
  7  8  1  0  0  0  0
  7  9  1  0  0  0  0
  7 10  1  0  0  0  0
 10 11  1  0  0  0  0
 10 12  1  0  0  0  0
 10 13  1  0  0  0  0
M  END
> <VConfSearch Rank>
481

> <Conf_Id>
0

> <Delta U+W>
0.000

> <U+W>
-58.332

> <U>
8.390

> <W>
-66.722

> <W(PB)>
-68.455

> <W(SA)>
1.733

> <Valence>
6.333

> <Coulomb>
1.215

> <VdW>
0.842

> <VdW6>
-3.344

> <VdW12>
4.186

> <Bond>
0.091

> <Angle>
2.713

> <Pdih>
3.529

> <Idih>
0.000

> <Tether>
0.000

$$$$
VeraChem MOL file


 13 12  0  0  0  0  0  0  0  0999 V2000     
   20.3815   16.9658   21.9096 C   0  0  0  0  0  0  0  0  0  0  0  0
   20.9328   16.4900   20.9374 O   0  5  0  0  0  0  0  0  0  0  0  0
   19.6912   16.3202   22.6725 O   0  0  0  0  0  0  0  0  0  0  0  0
   20.5499   18.4578   22.1761 C   0  0  0  0  0  0  0  0  0  0  0  0
   21.5472   18.7560   21.8304 H   0  0  0  0  0  0  0  0  0  0  0  0
   20.5233   18.6159   23.2612 H   0  0  0  0  0  0  0  0  0  0  0  0
   19.4665   19.3209   21.4854 C   0  0  0  0  0  0  0  0  0  0  0  0
   19.4960   19.1470   20.4006 H   0  0  0  0  0  0  0  0  0  0  0  0
   18.4719   19.0070   21.8318 H   0  0  0  0  0  0  0  0  0  0  0  0
   19.6645   20.8226   21.7739 C   0  0  0  0  0  0  0  0  0  0  0  0
   18.8876   21.4177   21.2763 H   0  0  0  0  0  0  0  0  0  0  0  0
   19.6092   21.0261   22.8515 H   0  0  0  0  0  0  0  0  0  0  0  0
   20.6411   21.1672   21.4093 H   0  0  0  0  0  0  0  0  0  0  0  0
  1  2  1  0  0  0  0
  1  3  2  0  0  0  0
  1  4  1  0  0  0  0
  4  5  1  0  0  0  0
  4  6  1  0  0  0  0
  4  7  1  0  0  0  0
  7  8  1  0  0  0  0
  7  9  1  0  0  0  0
  7 10  1  0  0  0  0
 10 11  1  0  0  0  0
 10 12  1  0  0  0  0
 10 13  1  0  0  0  0
M  END
> <VConfSearch Rank>
482

> <Conf_Id>
1

> <Delta U+W>
-1.339

> <U+W>
-59.672

> <U>
7.389

> <W>
-67.061

> <W(PB)>
-68.767

> <W(SA)>
1.707

> <Valence>
5.822

> <Coulomb>
1.255

> <VdW>
0.312

> <VdW6>
-3.061

> <VdW12>
3.372

> <Bond>
0.059

> <Angle>
2.241

> <Pdih>
3.522

> <Idih>
0.000

> <Tether>
0.000

$$$$
VeraChem MOL file


 13 12  0  0  0  0  0  0  0  0999 V2000     
   19.5011   19.0513   23.6745 C   0  0  0  0  0  0  0  0  0  0  0  0
   18.2934   19.0013   23.7973 O   0  5  0  0  0  0  0  0  0  0  0  0
   20.2742   18.4904   24.4252 O   0  0  0  0  0  0  0  0  0  0  0  0
   20.0752   19.8932   22.5378 C   0  0  0  0  0  0  0  0  0  0  0  0
   21.1322   20.0961   22.7499 H   0  0  0  0  0  0  0  0  0  0  0  0
   19.5580   20.8600   22.5533 H   0  0  0  0  0  0  0  0  0  0  0  0
   19.9260   19.2512   21.1346 C   0  0  0  0  0  0  0  0  0  0  0  0
   18.8690   19.0142   20.9491 H   0  0  0  0  0  0  0  0  0  0  0  0
   20.2243   19.9823   20.3708 H   0  0  0  0  0  0  0  0  0  0  0  0
   20.7815   17.9774   20.9742 C   0  0  0  0  0  0  0  0  0  0  0  0
   20.4797   17.2060   21.6951 H   0  0  0  0  0  0  0  0  0  0  0  0
   20.6683   17.5600   19.9652 H   0  0  0  0  0  0  0  0  0  0  0  0
   21.8454   18.1966   21.1337 H   0  0  0  0  0  0  0  0  0  0  0  0
  1  2  1  0  0  0  0
  1  3  2  0  0  0  0
  1  4  1  0  0  0  0
  4  5  1  0  0  0  0
  4  6  1  0  0  0  0
  4  7  1  0  0  0  0
  7  8  1  0  0  0  0
  7  9  1  0  0  0  0
  7 10  1  0  0  0  0
 10 11  1  0  0  0  0
 10 12  1  0  0  0  0
 10 13  1  0  0  0  0
M  END
> <VConfSearch Rank>
483

> <Conf_Id>
4

> <Delta U+W>
0.281

> <U+W>
-58.051

> <U>
9.781

> <W>
-67.832

> <W(PB)>
-69.535

> <W(SA)>
1.703

> <Valence>
6.123

> <Coulomb>
3.449

> <VdW>
0.209

> <VdW6>
-3.762

> <VdW12>
3.972

> <Bond>
0.078

> <Angle>
2.428

> <Pdih>
3.616

> <Idih>
0.002

> <Tether>
0.000

$$$$
VeraChem MOL file


 13 12  0  0  0  0  0  0  0  0999 V2000     
   21.8102   18.7392   21.4569 C   0  0  0  0  0  0  0  0  0  0  0  0
   22.2038   19.7504   20.9105 O   0  5  0  0  0  0  0  0  0  0  0  0
   22.5092   18.0490   22.1720 O   0  0  0  0  0  0  0  0  0  0  0  0
   20.3730   18.2904   21.2049 C   0  0  0  0  0  0  0  0  0  0  0  0
   20.4027   17.2233   20.9543 H   0  0  0  0  0  0  0  0  0  0  0  0
   19.9918   18.8132   20.3190 H   0  0  0  0  0  0  0  0  0  0  0  0
   19.4191   18.5113   22.4068 C   0  0  0  0  0  0  0  0  0  0  0  0
   18.4558   18.0274   22.1955 H   0  0  0  0  0  0  0  0  0  0  0  0
   19.8311   18.0185   23.2986 H   0  0  0  0  0  0  0  0  0  0  0  0
   19.1780   20.0062   22.7022 C   0  0  0  0  0  0  0  0  0  0  0  0
   18.7452   20.5137   21.8301 H   0  0  0  0  0  0  0  0  0  0  0  0
   18.4844   20.1271   23.5444 H   0  0  0  0  0  0  0  0  0  0  0  0
   20.1167   20.5136   22.9617 H   0  0  0  0  0  0  0  0  0  0  0  0
  1  2  1  0  0  0  0
  1  3  2  0  0  0  0
  1  4  1  0  0  0  0
  4  5  1  0  0  0  0
  4  6  1  0  0  0  0
  4  7  1  0  0  0  0
  7  8  1  0  0  0  0
  7  9  1  0  0  0  0
  7 10  1  0  0  0  0
 10 11  1  0  0  0  0
 10 12  1  0  0  0  0
 10 13  1  0  0  0  0
M  END
> <VConfSearch Rank>
484

> <Conf_Id>
36

> <Delta U+W>
0.272

> <U+W>
-58.060

> <U>
9.781

> <W>
-67.841

> <W(PB)>
-69.537

> <W(SA)>
1.696

> <Valence>
6.123

> <Coulomb>
3.449

> <VdW>
0.209

> <VdW6>
-3.762

> <VdW12>
3.972

> <Bond>
0.078

> <Angle>
2.428

> <Pdih>
3.616

> <Idih>
0.002

> <Tether>
0.000

$$$$
VeraChem MOL file


 13 12  0  0  0  0  0  0  0  0999 V2000     
   21.4272   19.5251   23.3374 C   0  0  0  0  0  0  0  0  0  0  0  0
   20.6886   20.0687   24.1351 O   0  5  0  0  0  0  0  0  0  0  0  0
   22.6216   19.4023   23.5193 O   0  0  0  0  0  0  0  0  0  0  0  0
   20.8566   18.9598   22.0353 C   0  0  0  0  0  0  0  0  0  0  0  0
   21.1098   17.8935   22.0022 H   0  0  0  0  0  0  0  0  0  0  0  0
   21.3901   19.4415   21.2073 H   0  0  0  0  0  0  0  0  0  0  0  0
   19.3275   19.1397   21.8465 C   0  0  0  0  0  0  0  0  0  0  0  0
   18.7948   18.6588   22.6788 H   0  0  0  0  0  0  0  0  0  0  0  0
   19.0754   20.2088   21.8830 H   0  0  0  0  0  0  0  0  0  0  0  0
   18.8444   18.5411   20.5101 C   0  0  0  0  0  0  0  0  0  0  0  0
   19.0572   17.4650   20.4618 H   0  0  0  0  0  0  0  0  0  0  0  0
   17.7612   18.6778   20.3945 H   0  0  0  0  0  0  0  0  0  0  0  0
   19.3401   19.0274   19.6597 H   0  0  0  0  0  0  0  0  0  0  0  0
  1  2  1  0  0  0  0
  1  3  2  0  0  0  0
  1  4  1  0  0  0  0
  4  5  1  0  0  0  0
  4  6  1  0  0  0  0
  4  7  1  0  0  0  0
  7  8  1  0  0  0  0
  7  9  1  0  0  0  0
  7 10  1  0  0  0  0
 10 11  1  0  0  0  0
 10 12  1  0  0  0  0
 10 13  1  0  0  0  0
M  END
> <VConfSearch Rank>
485

> <Conf_Id>
0

> <Delta U+W>
0.000

> <U+W>
-58.332

> <U>
8.390

> <W>
-66.722

> <W(PB)>
-68.455

> <W(SA)>
1.733

> <Valence>
6.333

> <Coulomb>
1.215

> <VdW>
0.842

> <VdW6>
-3.344

> <VdW12>
4.186

> <Bond>
0.091

> <Angle>
2.713

> <Pdih>
3.529

> <Idih>
0.000

> <Tether>
0.000

$$$$
VeraChem MOL file


 13 12  0  0  0  0  0  0  0  0999 V2000     
   20.4328   17.3111   20.7024 C   0  0  0  0  0  0  0  0  0  0  0  0
   21.5294   17.2809   20.1810 O   0  5  0  0  0  0  0  0  0  0  0  0
   19.4781   16.6808   20.2942 O   0  0  0  0  0  0  0  0  0  0  0  0
   20.2393   18.2029   21.9242 C   0  0  0  0  0  0  0  0  0  0  0  0
   21.1835   18.2278   22.4817 H   0  0  0  0  0  0  0  0  0  0  0  0
   19.4919   17.7329   22.5750 H   0  0  0  0  0  0  0  0  0  0  0  0
   19.7984   19.6409   21.5588 C   0  0  0  0  0  0  0  0  0  0  0  0
   20.5492   20.0979   20.8991 H   0  0  0  0  0  0  0  0  0  0  0  0
   18.8572   19.6029   20.9926 H   0  0  0  0  0  0  0  0  0  0  0  0
   19.6117   20.5162   22.8143 C   0  0  0  0  0  0  0  0  0  0  0  0
   19.2993   21.5310   22.5352 H   0  0  0  0  0  0  0  0  0  0  0  0
   18.8434   20.0950   23.4760 H   0  0  0  0  0  0  0  0  0  0  0  0
   20.5484   20.5939   23.3818 H   0  0  0  0  0  0  0  0  0  0  0  0
  1  2  1  0  0  0  0
  1  3  2  0  0  0  0
  1  4  1  0  0  0  0
  4  5  1  0  0  0  0
  4  6  1  0  0  0  0
  4  7  1  0  0  0  0
  7  8  1  0  0  0  0
  7  9  1  0  0  0  0
  7 10  1  0  0  0  0
 10 11  1  0  0  0  0
 10 12  1  0  0  0  0
 10 13  1  0  0  0  0
M  END
> <VConfSearch Rank>
486

> <Conf_Id>
1

> <Delta U+W>
-1.339

> <U+W>
-59.672

> <U>
7.389

> <W>
-67.061

> <W(PB)>
-68.767

> <W(SA)>
1.707

> <Valence>
5.822

> <Coulomb>
1.255

> <VdW>
0.312

> <VdW6>
-3.061

> <VdW12>
3.372

> <Bond>
0.059

> <Angle>
2.241

> <Pdih>
3.522

> <Idih>
0.000

> <Tether>
0.000

$$$$
VeraChem MOL file


 13 12  0  0  0  0  0  0  0  0999 V2000     
   21.6359   18.6078   22.8909 C   0  0  0  0  0  0  0  0  0  0  0  0
   22.6357   19.1762   22.4990 O   0  5  0  0  0  0  0  0  0  0  0  0
   21.3821   18.4333   24.0660 O   0  0  0  0  0  0  0  0  0  0  0  0
   20.6674   18.0535   21.8491 C   0  0  0  0  0  0  0  0  0  0  0  0
   20.0156   17.3156   22.3327 H   0  0  0  0  0  0  0  0  0  0  0  0
   21.2628   17.5107   21.1052 H   0  0  0  0  0  0  0  0  0  0  0  0
   19.8140   19.1344   21.1373 C   0  0  0  0  0  0  0  0  0  0  0  0
   20.4755   19.8906   20.6917 H   0  0  0  0  0  0  0  0  0  0  0  0
   19.2628   18.6696   20.3085 H   0  0  0  0  0  0  0  0  0  0  0  0
   18.8106   19.8164   22.0901 C   0  0  0  0  0  0  0  0  0  0  0  0
   19.3309   20.3305   22.9091 H   0  0  0  0  0  0  0  0  0  0  0  0
   18.2100   20.5607   21.5512 H   0  0  0  0  0  0  0  0  0  0  0  0
   18.1248   19.0805   22.5299 H   0  0  0  0  0  0  0  0  0  0  0  0
  1  2  1  0  0  0  0
  1  3  2  0  0  0  0
  1  4  1  0  0  0  0
  4  5  1  0  0  0  0
  4  6  1  0  0  0  0
  4  7  1  0  0  0  0
  7  8  1  0  0  0  0
  7  9  1  0  0  0  0
  7 10  1  0  0  0  0
 10 11  1  0  0  0  0
 10 12  1  0  0  0  0
 10 13  1  0  0  0  0
M  END
> <VConfSearch Rank>
487

> <Conf_Id>
4

> <Delta U+W>
0.281

> <U+W>
-58.051

> <U>
9.781

> <W>
-67.832

> <W(PB)>
-69.535

> <W(SA)>
1.703

> <Valence>
6.123

> <Coulomb>
3.449

> <VdW>
0.209

> <VdW6>
-3.762

> <VdW12>
3.972

> <Bond>
0.078

> <Angle>
2.428

> <Pdih>
3.616

> <Idih>
0.002

> <Tether>
0.000

$$$$
VeraChem MOL file


 13 12  0  0  0  0  0  0  0  0999 V2000     
   20.8696   20.4433   22.6806 C   0  0  0  0  0  0  0  0  0  0  0  0
   20.1946   21.4131   22.3984 O   0  5  0  0  0  0  0  0  0  0  0  0
   21.4344   20.3081   23.7478 O   0  0  0  0  0  0  0  0  0  0  0  0
   21.0485   19.3524   21.6277 C   0  0  0  0  0  0  0  0  0  0  0  0
   22.1193   19.1225   21.5736 H   0  0  0  0  0  0  0  0  0  0  0  0
   20.7617   19.7577   20.6495 H   0  0  0  0  0  0  0  0  0  0  0  0
   20.2563   18.0523   21.9200 C   0  0  0  0  0  0  0  0  0  0  0  0
   20.5586   17.2775   21.2022 H   0  0  0  0  0  0  0  0  0  0  0  0
   20.5202   17.6775   22.9189 H   0  0  0  0  0  0  0  0  0  0  0  0
   18.7301   18.2573   21.8270 C   0  0  0  0  0  0  0  0  0  0  0  0
   18.4418   18.6109   20.8284 H   0  0  0  0  0  0  0  0  0  0  0  0
   18.2007   17.3151   22.0196 H   0  0  0  0  0  0  0  0  0  0  0  0
   18.3854   18.9954   22.5634 H   0  0  0  0  0  0  0  0  0  0  0  0
  1  2  1  0  0  0  0
  1  3  2  0  0  0  0
  1  4  1  0  0  0  0
  4  5  1  0  0  0  0
  4  6  1  0  0  0  0
  4  7  1  0  0  0  0
  7  8  1  0  0  0  0
  7  9  1  0  0  0  0
  7 10  1  0  0  0  0
 10 11  1  0  0  0  0
 10 12  1  0  0  0  0
 10 13  1  0  0  0  0
M  END
> <VConfSearch Rank>
488

> <Conf_Id>
36

> <Delta U+W>
0.272

> <U+W>
-58.060

> <U>
9.781

> <W>
-67.841

> <W(PB)>
-69.537

> <W(SA)>
1.696

> <Valence>
6.123

> <Coulomb>
3.449

> <VdW>
0.209

> <VdW6>
-3.762

> <VdW12>
3.972

> <Bond>
0.078

> <Angle>
2.428

> <Pdih>
3.616

> <Idih>
0.002

> <Tether>
0.000

$$$$
VeraChem MOL file


 13 12  0  0  0  0  0  0  0  0999 V2000     
   18.0648   19.8290   21.6524 C   0  0  0  0  0  0  0  0  0  0  0  0
   18.2654   20.6849   20.8131 O   0  5  0  0  0  0  0  0  0  0  0  0
   16.9755   19.6367   22.1537 O   0  0  0  0  0  0  0  0  0  0  0  0
   19.2167   18.9372   22.1199 C   0  0  0  0  0  0  0  0  0  0  0  0
   18.9223   17.8974   21.9342 H   0  0  0  0  0  0  0  0  0  0  0  0
   19.3032   19.0564   23.2065 H   0  0  0  0  0  0  0  0  0  0  0  0
   20.5882   19.2191   21.4526 C   0  0  0  0  0  0  0  0  0  0  0  0
   20.4987   19.1020   20.3635 H   0  0  0  0  0  0  0  0  0  0  0  0
   20.8800   20.2624   21.6373 H   0  0  0  0  0  0  0  0  0  0  0  0
   21.6851   18.2748   21.9845 C   0  0  0  0  0  0  0  0  0  0  0  0
   21.4314   17.2255   21.7840 H   0  0  0  0  0  0  0  0  0  0  0  0
   22.6473   18.4891   21.5013 H   0  0  0  0  0  0  0  0  0  0  0  0
   21.8158   18.3952   23.0680 H   0  0  0  0  0  0  0  0  0  0  0  0
  1  2  1  0  0  0  0
  1  3  2  0  0  0  0
  1  4  1  0  0  0  0
  4  5  1  0  0  0  0
  4  6  1  0  0  0  0
  4  7  1  0  0  0  0
  7  8  1  0  0  0  0
  7  9  1  0  0  0  0
  7 10  1  0  0  0  0
 10 11  1  0  0  0  0
 10 12  1  0  0  0  0
 10 13  1  0  0  0  0
M  END
> <VConfSearch Rank>
489

> <Conf_Id>
0

> <Delta U+W>
0.000

> <U+W>
-58.332

> <U>
8.390

> <W>
-66.722

> <W(PB)>
-68.455

> <W(SA)>
1.733

> <Valence>
6.333

> <Coulomb>
1.215

> <VdW>
0.842

> <VdW6>
-3.344

> <VdW12>
4.186

> <Bond>
0.091

> <Angle>
2.713

> <Pdih>
3.529

> <Idih>
0.000

> <Tether>
0.000

$$$$
VeraChem MOL file


 13 12  0  0  0  0  0  0  0  0999 V2000     
   21.8042   20.1103   21.9749 C   0  0  0  0  0  0  0  0  0  0  0  0
   22.0692   20.8388   21.0398 O   0  5  0  0  0  0  0  0  0  0  0  0
   22.6420   19.6437   22.7205 O   0  0  0  0  0  0  0  0  0  0  0  0
   20.3427   19.7466   22.2144 C   0  0  0  0  0  0  0  0  0  0  0  0
   19.7242   20.5987   21.9072 H   0  0  0  0  0  0  0  0  0  0  0  0
   20.1965   19.6132   23.2932 H   0  0  0  0  0  0  0  0  0  0  0  0
   19.9056   18.4702   21.4558 C   0  0  0  0  0  0  0  0  0  0  0  0
   20.0658   18.6116   20.3777 H   0  0  0  0  0  0  0  0  0  0  0  0
   20.5381   17.6259   21.7641 H   0  0  0  0  0  0  0  0  0  0  0  0
   18.4249   18.1300   21.7183 C   0  0  0  0  0  0  0  0  0  0  0  0
   18.1339   17.2229   21.1726 H   0  0  0  0  0  0  0  0  0  0  0  0
   18.2458   17.9546   22.7873 H   0  0  0  0  0  0  0  0  0  0  0  0
   17.7698   18.9478   21.3903 H   0  0  0  0  0  0  0  0  0  0  0  0
  1  2  1  0  0  0  0
  1  3  2  0  0  0  0
  1  4  1  0  0  0  0
  4  5  1  0  0  0  0
  4  6  1  0  0  0  0
  4  7  1  0  0  0  0
  7  8  1  0  0  0  0
  7  9  1  0  0  0  0
  7 10  1  0  0  0  0
 10 11  1  0  0  0  0
 10 12  1  0  0  0  0
 10 13  1  0  0  0  0
M  END
> <VConfSearch Rank>
490

> <Conf_Id>
1

> <Delta U+W>
-1.339

> <U+W>
-59.672

> <U>
7.389

> <W>
-67.061

> <W(PB)>
-68.767

> <W(SA)>
1.707

> <Valence>
5.822

> <Coulomb>
1.255

> <VdW>
0.312

> <VdW6>
-3.061

> <VdW12>
3.372

> <Bond>
0.059

> <Angle>
2.241

> <Pdih>
3.522

> <Idih>
0.000

> <Tether>
0.000

$$$$
VeraChem MOL file


 13 12  0  0  0  0  0  0  0  0999 V2000     
   21.1516   18.7614   23.4512 C   0  0  0  0  0  0  0  0  0  0  0  0
   20.5662   18.7142   24.5148 O   0  5  0  0  0  0  0  0  0  0  0  0
   22.1055   18.0595   23.1803 O   0  0  0  0  0  0  0  0  0  0  0  0
   20.6843   19.7820   22.4164 C   0  0  0  0  0  0  0  0  0  0  0  0
   21.4817   19.9223   21.6763 H   0  0  0  0  0  0  0  0  0  0  0  0
   20.5613   20.7404   22.9348 H   0  0  0  0  0  0  0  0  0  0  0  0
   19.3581   19.4053   21.7075 C   0  0  0  0  0  0  0  0  0  0  0  0
   18.5769   19.2266   22.4596 H   0  0  0  0  0  0  0  0  0  0  0  0
   19.0215   20.2555   21.0986 H   0  0  0  0  0  0  0  0  0  0  0  0
   19.5041   18.1642   20.8029 C   0  0  0  0  0  0  0  0  0  0  0  0
   19.7975   17.2821   21.3874 H   0  0  0  0  0  0  0  0  0  0  0  0
   18.5542   17.9369   20.3017 H   0  0  0  0  0  0  0  0  0  0  0  0
   20.2653   18.3298   20.0292 H   0  0  0  0  0  0  0  0  0  0  0  0
  1  2  1  0  0  0  0
  1  3  2  0  0  0  0
  1  4  1  0  0  0  0
  4  5  1  0  0  0  0
  4  6  1  0  0  0  0
  4  7  1  0  0  0  0
  7  8  1  0  0  0  0
  7  9  1  0  0  0  0
  7 10  1  0  0  0  0
 10 11  1  0  0  0  0
 10 12  1  0  0  0  0
 10 13  1  0  0  0  0
M  END
> <VConfSearch Rank>
491

> <Conf_Id>
4

> <Delta U+W>
0.281

> <U+W>
-58.051

> <U>
9.781

> <W>
-67.832

> <W(PB)>
-69.535

> <W(SA)>
1.703

> <Valence>
6.123

> <Coulomb>
3.449

> <VdW>
0.209

> <VdW6>
-3.762

> <VdW12>
3.972

> <Bond>
0.078

> <Angle>
2.428

> <Pdih>
3.616

> <Idih>
0.002

> <Tether>
0.000

$$$$
VeraChem MOL file


 13 12  0  0  0  0  0  0  0  0999 V2000     
   21.5469   19.3448   20.9847 C   0  0  0  0  0  0  0  0  0  0  0  0
   22.3078   20.0604   21.6051 O   0  5  0  0  0  0  0  0  0  0  0  0
   21.9178   18.4627   20.2361 O   0  0  0  0  0  0  0  0  0  0  0  0
   20.0461   19.5880   21.1237 C   0  0  0  0  0  0  0  0  0  0  0  0
   19.6240   19.6137   20.1120 H   0  0  0  0  0  0  0  0  0  0  0  0
   19.8901   20.5834   21.5574 H   0  0  0  0  0  0  0  0  0  0  0  0
   19.3049   18.5171   21.9646 C   0  0  0  0  0  0  0  0  0  0  0  0
   18.2220   18.6842   21.8864 H   0  0  0  0  0  0  0  0  0  0  0  0
   19.5016   17.5200   21.5461 H   0  0  0  0  0  0  0  0  0  0  0  0
   19.7134   18.5476   23.4519 C   0  0  0  0  0  0  0  0  0  0  0  0
   19.5044   19.5297   23.8962 H   0  0  0  0  0  0  0  0  0  0  0  0
   19.1570   17.7919   24.0215 H   0  0  0  0  0  0  0  0  0  0  0  0
   20.7850   18.3398   23.5713 H   0  0  0  0  0  0  0  0  0  0  0  0
  1  2  1  0  0  0  0
  1  3  2  0  0  0  0
  1  4  1  0  0  0  0
  4  5  1  0  0  0  0
  4  6  1  0  0  0  0
  4  7  1  0  0  0  0
  7  8  1  0  0  0  0
  7  9  1  0  0  0  0
  7 10  1  0  0  0  0
 10 11  1  0  0  0  0
 10 12  1  0  0  0  0
 10 13  1  0  0  0  0
M  END
> <VConfSearch Rank>
492

> <Conf_Id>
36

> <Delta U+W>
0.272

> <U+W>
-58.060

> <U>
9.781

> <W>
-67.841

> <W(PB)>
-69.537

> <W(SA)>
1.696

> <Valence>
6.123

> <Coulomb>
3.449

> <VdW>
0.209

> <VdW6>
-3.762

> <VdW12>
3.972

> <Bond>
0.078

> <Angle>
2.428

> <Pdih>
3.616

> <Idih>
0.002

> <Tether>
0.000

$$$$
VeraChem MOL file


 13 12  0  0  0  0  0  0  0  0999 V2000     
   20.4462   21.0892   21.7409 C   0  0  0  0  0  0  0  0  0  0  0  0
   19.4286   21.5336   22.2352 O   0  5  0  0  0  0  0  0  0  0  0  0
   21.3582   21.7941   21.3586 O   0  0  0  0  0  0  0  0  0  0  0  0
   20.6159   19.5774   21.5788 C   0  0  0  0  0  0  0  0  0  0  0  0
   21.5297   19.2911   22.1129 H   0  0  0  0  0  0  0  0  0  0  0  0
   20.7915   19.3796   20.5147 H   0  0  0  0  0  0  0  0  0  0  0  0
   19.4264   18.7177   22.0807 C   0  0  0  0  0  0  0  0  0  0  0  0
   19.2501   18.9196   23.1465 H   0  0  0  0  0  0  0  0  0  0  0  0
   18.5110   19.0082   21.5464 H   0  0  0  0  0  0  0  0  0  0  0  0
   19.6865   17.2115   21.8771 C   0  0  0  0  0  0  0  0  0  0  0  0
   20.5802   16.8892   22.4274 H   0  0  0  0  0  0  0  0  0  0  0  0
   18.8348   16.6200   22.2377 H   0  0  0  0  0  0  0  0  0  0  0  0
   19.8352   16.9785   20.8144 H   0  0  0  0  0  0  0  0  0  0  0  0
  1  2  1  0  0  0  0
  1  3  2  0  0  0  0
  1  4  1  0  0  0  0
  4  5  1  0  0  0  0
  4  6  1  0  0  0  0
  4  7  1  0  0  0  0
  7  8  1  0  0  0  0
  7  9  1  0  0  0  0
  7 10  1  0  0  0  0
 10 11  1  0  0  0  0
 10 12  1  0  0  0  0
 10 13  1  0  0  0  0
M  END
> <VConfSearch Rank>
493

> <Conf_Id>
0

> <Delta U+W>
0.000

> <U+W>
-58.332

> <U>
8.390

> <W>
-66.722

> <W(PB)>
-68.455

> <W(SA)>
1.733

> <Valence>
6.333

> <Coulomb>
1.215

> <VdW>
0.842

> <VdW6>
-3.344

> <VdW12>
4.186

> <Bond>
0.091

> <Angle>
2.713

> <Pdih>
3.529

> <Idih>
0.000

> <Tether>
0.000

$$$$
VeraChem MOL file


 13 12  0  0  0  0  0  0  0  0999 V2000     
   20.0613   18.6120   19.7651 C   0  0  0  0  0  0  0  0  0  0  0  0
   19.4380   17.6355   19.4000 O   0  5  0  0  0  0  0  0  0  0  0  0
   21.0093   19.0685   19.1582 O   0  0  0  0  0  0  0  0  0  0  0  0
   19.6428   19.2902   21.0652 C   0  0  0  0  0  0  0  0  0  0  0  0
   18.5568   19.1812   21.1730 H   0  0  0  0  0  0  0  0  0  0  0  0
   19.8525   20.3629   20.9735 H   0  0  0  0  0  0  0  0  0  0  0  0
   20.3622   18.7112   22.3074 C   0  0  0  0  0  0  0  0  0  0  0  0
   20.1531   17.6349   22.3834 H   0  0  0  0  0  0  0  0  0  0  0  0
   21.4491   18.8170   22.1840 H   0  0  0  0  0  0  0  0  0  0  0  0
   19.9177   19.4171   23.6041 C   0  0  0  0  0  0  0  0  0  0  0  0
   20.4381   18.9933   24.4730 H   0  0  0  0  0  0  0  0  0  0  0  0
   20.1439   20.4908   23.5641 H   0  0  0  0  0  0  0  0  0  0  0  0
   18.8380   19.2996   23.7651 H   0  0  0  0  0  0  0  0  0  0  0  0
  1  2  1  0  0  0  0
  1  3  2  0  0  0  0
  1  4  1  0  0  0  0
  4  5  1  0  0  0  0
  4  6  1  0  0  0  0
  4  7  1  0  0  0  0
  7  8  1  0  0  0  0
  7  9  1  0  0  0  0
  7 10  1  0  0  0  0
 10 11  1  0  0  0  0
 10 12  1  0  0  0  0
 10 13  1  0  0  0  0
M  END
> <VConfSearch Rank>
494

> <Conf_Id>
1

> <Delta U+W>
-1.339

> <U+W>
-59.672

> <U>
7.389

> <W>
-67.061

> <W(PB)>
-68.767

> <W(SA)>
1.707

> <Valence>
5.822

> <Coulomb>
1.255

> <VdW>
0.312

> <VdW6>
-3.061

> <VdW12>
3.372

> <Bond>
0.059

> <Angle>
2.241

> <Pdih>
3.522

> <Idih>
0.000

> <Tether>
0.000

$$$$
VeraChem MOL file


 13 12  0  0  0  0  0  0  0  0999 V2000     
   20.6997   19.0026   23.6939 C   0  0  0  0  0  0  0  0  0  0  0  0
   20.8396   17.9223   24.2319 O   0  5  0  0  0  0  0  0  0  0  0  0
   21.4698   19.9302   23.8442 O   0  0  0  0  0  0  0  0  0  0  0  0
   19.4719   19.2144   22.8117 C   0  0  0  0  0  0  0  0  0  0  0  0
   19.3215   20.2919   22.6714 H   0  0  0  0  0  0  0  0  0  0  0  0
   18.6023   18.8431   23.3670 H   0  0  0  0  0  0  0  0  0  0  0  0
   19.5479   18.5024   21.4367 C   0  0  0  0  0  0  0  0  0  0  0  0
   19.7398   17.4308   21.5876 H   0  0  0  0  0  0  0  0  0  0  0  0
   18.5730   18.5810   20.9363 H   0  0  0  0  0  0  0  0  0  0  0  0
   20.6344   19.1023   20.5205 C   0  0  0  0  0  0  0  0  0  0  0  0
   21.6307   19.0007   20.9710 H   0  0  0  0  0  0  0  0  0  0  0  0
   20.6484   18.5895   19.5500 H   0  0  0  0  0  0  0  0  0  0  0  0
   20.4491   20.1690   20.3385 H   0  0  0  0  0  0  0  0  0  0  0  0
  1  2  1  0  0  0  0
  1  3  2  0  0  0  0
  1  4  1  0  0  0  0
  4  5  1  0  0  0  0
  4  6  1  0  0  0  0
  4  7  1  0  0  0  0
  7  8  1  0  0  0  0
  7  9  1  0  0  0  0
  7 10  1  0  0  0  0
 10 11  1  0  0  0  0
 10 12  1  0  0  0  0
 10 13  1  0  0  0  0
M  END
> <VConfSearch Rank>
495

> <Conf_Id>
4

> <Delta U+W>
0.281

> <U+W>
-58.051

> <U>
9.781

> <W>
-67.832

> <W(PB)>
-69.535

> <W(SA)>
1.703

> <Valence>
6.123

> <Coulomb>
3.449

> <VdW>
0.209

> <VdW6>
-3.762

> <VdW12>
3.972

> <Bond>
0.078

> <Angle>
2.428

> <Pdih>
3.616

> <Idih>
0.002

> <Tether>
0.000

$$$$
VeraChem MOL file


 13 12  0  0  0  0  0  0  0  0999 V2000     
   19.3315   20.4713   22.5744 C   0  0  0  0  0  0  0  0  0  0  0  0
   19.3184   21.2935   21.6802 O   0  5  0  0  0  0  0  0  0  0  0  0
   18.4202   20.3269   23.3648 O   0  0  0  0  0  0  0  0  0  0  0  0
   20.5721   19.5966   22.7378 C   0  0  0  0  0  0  0  0  0  0  0  0
   20.8528   19.6220   23.7975 H   0  0  0  0  0  0  0  0  0  0  0  0
   21.3994   20.0524   22.1800 H   0  0  0  0  0  0  0  0  0  0  0  0
   20.3742   18.1251   22.2919 C   0  0  0  0  0  0  0  0  0  0  0  0
   21.2571   17.5393   22.5823 H   0  0  0  0  0  0  0  0  0  0  0  0
   19.5176   17.6909   22.8263 H   0  0  0  0  0  0  0  0  0  0  0  0
   20.1602   17.9931   20.7699 C   0  0  0  0  0  0  0  0  0  0  0  0
   21.0160   18.4013   20.2164 H   0  0  0  0  0  0  0  0  0  0  0  0
   20.0434   16.9392   20.4856 H   0  0  0  0  0  0  0  0  0  0  0  0
   19.2582   18.5316   20.4500 H   0  0  0  0  0  0  0  0  0  0  0  0
  1  2  1  0  0  0  0
  1  3  2  0  0  0  0
  1  4  1  0  0  0  0
  4  5  1  0  0  0  0
  4  6  1  0  0  0  0
  4  7  1  0  0  0  0
  7  8  1  0  0  0  0
  7  9  1  0  0  0  0
  7 10  1  0  0  0  0
 10 11  1  0  0  0  0
 10 12  1  0  0  0  0
 10 13  1  0  0  0  0
M  END
> <VConfSearch Rank>
496

> <Conf_Id>
36

> <Delta U+W>
0.272

> <U+W>
-58.060

> <U>
9.781

> <W>
-67.841

> <W(PB)>
-69.537

> <W(SA)>
1.696

> <Valence>
6.123

> <Coulomb>
3.449

> <VdW>
0.209

> <VdW6>
-3.762

> <VdW12>
3.972

> <Bond>
0.078

> <Angle>
2.428

> <Pdih>
3.616

> <Idih>
0.002

> <Tether>
0.000

$$$$
VeraChem MOL file


 13 12  0  0  0  0  0  0  0  0999 V2000     
   18.0393   18.3970   22.3203 C   0  0  0  0  0  0  0  0  0  0  0  0
   17.4834   19.4778   22.3351 O   0  5  0  0  0  0  0  0  0  0  0  0
   17.4629   17.3536   22.5525 O   0  0  0  0  0  0  0  0  0  0  0  0
   19.5326   18.3141   21.9982 C   0  0  0  0  0  0  0  0  0  0  0  0
   19.6448   17.6498   21.1330 H   0  0  0  0  0  0  0  0  0  0  0  0
   20.0239   17.8217   22.8458 H   0  0  0  0  0  0  0  0  0  0  0  0
   20.2262   19.6709   21.7085 C   0  0  0  0  0  0  0  0  0  0  0  0
   19.7306   20.1640   20.8606 H   0  0  0  0  0  0  0  0  0  0  0  0
   20.1100   20.3362   22.5755 H   0  0  0  0  0  0  0  0  0  0  0  0
   21.7251   19.4888   21.3952 C   0  0  0  0  0  0  0  0  0  0  0  0
   21.8674   18.8518   20.5123 H   0  0  0  0  0  0  0  0  0  0  0  0
   22.1983   20.4586   21.1932 H   0  0  0  0  0  0  0  0  0  0  0  0
   22.2498   19.0253   22.2409 H   0  0  0  0  0  0  0  0  0  0  0  0
  1  2  1  0  0  0  0
  1  3  2  0  0  0  0
  1  4  1  0  0  0  0
  4  5  1  0  0  0  0
  4  6  1  0  0  0  0
  4  7  1  0  0  0  0
  7  8  1  0  0  0  0
  7  9  1  0  0  0  0
  7 10  1  0  0  0  0
 10 11  1  0  0  0  0
 10 12  1  0  0  0  0
 10 13  1  0  0  0  0
M  END
> <VConfSearch Rank>
497

> <Conf_Id>
0

> <Delta U+W>
0.000

> <U+W>
-58.332

> <U>
8.390

> <W>
-66.722

> <W(PB)>
-68.455

> <W(SA)>
1.733

> <Valence>
6.333

> <Coulomb>
1.215

> <VdW>
0.842

> <VdW6>
-3.344

> <VdW12>
4.186

> <Bond>
0.091

> <Angle>
2.713

> <Pdih>
3.529

> <Idih>
0.000

> <Tether>
0.000

$$$$
VeraChem MOL file


 13 12  0  0  0  0  0  0  0  0999 V2000     
   21.5352   17.6047   21.9428 C   0  0  0  0  0  0  0  0  0  0  0  0
   21.7223   17.1049   23.0339 O   0  5  0  0  0  0  0  0  0  0  0  0
   22.3873   17.6704   21.0798 O   0  0  0  0  0  0  0  0  0  0  0  0
   20.1620   18.1987   21.6474 C   0  0  0  0  0  0  0  0  0  0  0  0
   19.4116   17.6091   22.1879 H   0  0  0  0  0  0  0  0  0  0  0  0
   19.9600   18.0754   20.5764 H   0  0  0  0  0  0  0  0  0  0  0  0
   20.0519   19.6914   22.0418 C   0  0  0  0  0  0  0  0  0  0  0  0
   20.2658   19.8039   23.1139 H   0  0  0  0  0  0  0  0  0  0  0  0
   20.8143   20.2703   21.5020 H   0  0  0  0  0  0  0  0  0  0  0  0
   18.6534   20.2614   21.7309 C   0  0  0  0  0  0  0  0  0  0  0  0
   18.5947   21.3196   22.0172 H   0  0  0  0  0  0  0  0  0  0  0  0
   18.4285   20.1872   20.6588 H   0  0  0  0  0  0  0  0  0  0  0  0
   17.8758   19.7172   22.2831 H   0  0  0  0  0  0  0  0  0  0  0  0
  1  2  1  0  0  0  0
  1  3  2  0  0  0  0
  1  4  1  0  0  0  0
  4  5  1  0  0  0  0
  4  6  1  0  0  0  0
  4  7  1  0  0  0  0
  7  8  1  0  0  0  0
  7  9  1  0  0  0  0
  7 10  1  0  0  0  0
 10 11  1  0  0  0  0
 10 12  1  0  0  0  0
 10 13  1  0  0  0  0
M  END
> <VConfSearch Rank>
498

> <Conf_Id>
1

> <Delta U+W>
-1.339

> <U+W>
-59.672

> <U>
7.389

> <W>
-67.061

> <W(PB)>
-68.767

> <W(SA)>
1.707

> <Valence>
5.822

> <Coulomb>
1.255

> <VdW>
0.312

> <VdW6>
-3.061

> <VdW12>
3.372

> <Bond>
0.059

> <Angle>
2.241

> <Pdih>
3.522

> <Idih>
0.000

> <Tether>
0.000

$$$$
VeraChem MOL file


 13 12  0  0  0  0  0  0  0  0999 V2000     
   21.2904   19.2989   20.6766 C   0  0  0  0  0  0  0  0  0  0  0  0
   21.9315   20.3261   20.7763 O   0  5  0  0  0  0  0  0  0  0  0  0
   21.7602   18.2526   20.2760 O   0  0  0  0  0  0  0  0  0  0  0  0
   19.8082   19.3367   21.0405 C   0  0  0  0  0  0  0  0  0  0  0  0
   19.3166   18.4587   20.6037 H   0  0  0  0  0  0  0  0  0  0  0  0
   19.3742   20.2178   20.5530 H   0  0  0  0  0  0  0  0  0  0  0  0
   19.5303   19.4013   22.5643 C   0  0  0  0  0  0  0  0  0  0  0  0
   20.0607   20.2602   22.9987 H   0  0  0  0  0  0  0  0  0  0  0  0
   18.4582   19.5770   22.7274 H   0  0  0  0  0  0  0  0  0  0  0  0
   19.9460   18.1081   23.2955 C   0  0  0  0  0  0  0  0  0  0  0  0
   21.0235   17.9242   23.1906 H   0  0  0  0  0  0  0  0  0  0  0  0
   19.7180   18.1792   24.3670 H   0  0  0  0  0  0  0  0  0  0  0  0
   19.4103   17.2392   22.8912 H   0  0  0  0  0  0  0  0  0  0  0  0
  1  2  1  0  0  0  0
  1  3  2  0  0  0  0
  1  4  1  0  0  0  0
  4  5  1  0  0  0  0
  4  6  1  0  0  0  0
  4  7  1  0  0  0  0
  7  8  1  0  0  0  0
  7  9  1  0  0  0  0
  7 10  1  0  0  0  0
 10 11  1  0  0  0  0
 10 12  1  0  0  0  0
 10 13  1  0  0  0  0
M  END
> <VConfSearch Rank>
499

> <Conf_Id>
4

> <Delta U+W>
0.281

> <U+W>
-58.051

> <U>
9.781

> <W>
-67.832

> <W(PB)>
-69.535

> <W(SA)>
1.703

> <Valence>
6.123

> <Coulomb>
3.449

> <VdW>
0.209

> <VdW6>
-3.762

> <VdW12>
3.972

> <Bond>
0.078

> <Angle>
2.428

> <Pdih>
3.616

> <Idih>
0.002

> <Tether>
0.000

$$$$
VeraChem MOL file


 13 12  0  0  0  0  0  0  0  0999 V2000     
   21.5625   18.8074   23.0434 C   0  0  0  0  0  0  0  0  0  0  0  0
   21.2981   19.1922   24.1649 O   0  5  0  0  0  0  0  0  0  0  0  0
   22.2838   17.8570   22.8142 O   0  0  0  0  0  0  0  0  0  0  0  0
   20.9885   19.5785   21.8574 C   0  0  0  0  0  0  0  0  0  0  0  0
   21.8126   19.7642   21.1583 H   0  0  0  0  0  0  0  0  0  0  0  0
   20.6443   20.5589   22.2090 H   0  0  0  0  0  0  0  0  0  0  0  0
   19.8411   18.8435   21.1180 C   0  0  0  0  0  0  0  0  0  0  0  0
   19.5941   19.3936   20.1997 H   0  0  0  0  0  0  0  0  0  0  0  0
   20.1835   17.8467   20.8065 H   0  0  0  0  0  0  0  0  0  0  0  0
   18.5706   18.7112   21.9831 C   0  0  0  0  0  0  0  0  0  0  0  0
   18.1984   19.6983   22.2872 H   0  0  0  0  0  0  0  0  0  0  0  0
   17.7730   18.2049   21.4242 H   0  0  0  0  0  0  0  0  0  0  0  0
   18.7706   18.1269   22.8911 H   0  0  0  0  0  0  0  0  0  0  0  0
  1  2  1  0  0  0  0
  1  3  2  0  0  0  0
  1  4  1  0  0  0  0
  4  5  1  0  0  0  0
  4  6  1  0  0  0  0
  4  7  1  0  0  0  0
  7  8  1  0  0  0  0
  7  9  1  0  0  0  0
  7 10  1  0  0  0  0
 10 11  1  0  0  0  0
 10 12  1  0  0  0  0
 10 13  1  0  0  0  0
M  END
> <VConfSearch Rank>
500

> <Conf_Id>
36

> <Delta U+W>
0.272

> <U+W>
-58.060

> <U>
9.781

> <W>
-67.841

> <W(PB)>
-69.537

> <W(SA)>
1.696

> <Valence>
6.123

> <Coulomb>
3.449

> <VdW>
0.209

> <VdW6>
-3.762

> <VdW12>
3.972

> <Bond>
0.078

> <Angle>
2.428

> <Pdih>
3.616

> <Idih>
0.002

> <Tether>
0.000

$$$$
VeraChem MOL file


 13 12  0  0  0  0  0  0  0  0999 V2000     
   21.3601   17.4928   22.5173 C   0  0  0  0  0  0  0  0  0  0  0  0
   21.0030   16.5556   21.8308 O   0  5  0  0  0  0  0  0  0  0  0  0
   22.2570   17.4119   23.3321 O   0  0  0  0  0  0  0  0  0  0  0  0
   20.6678   18.8494   22.3721 C   0  0  0  0  0  0  0  0  0  0  0  0
   21.4399   19.5861   22.1201 H   0  0  0  0  0  0  0  0  0  0  0  0
   20.2736   19.1233   23.3580 H   0  0  0  0  0  0  0  0  0  0  0  0
   19.5293   18.9052   21.3202 C   0  0  0  0  0  0  0  0  0  0  0  0
   19.9258   18.6276   20.3336 H   0  0  0  0  0  0  0  0  0  0  0  0
   18.7580   18.1642   21.5730 H   0  0  0  0  0  0  0  0  0  0  0  0
   18.8923   20.3075   21.2443 C   0  0  0  0  0  0  0  0  0  0  0  0
   19.6376   21.0628   20.9624 H   0  0  0  0  0  0  0  0  0  0  0  0
   18.0897   20.3273   20.4955 H   0  0  0  0  0  0  0  0  0  0  0  0
   18.4605   20.5958   22.2117 H   0  0  0  0  0  0  0  0  0  0  0  0
  1  2  1  0  0  0  0
  1  3  2  0  0  0  0
  1  4  1  0  0  0  0
  4  5  1  0  0  0  0
  4  6  1  0  0  0  0
  4  7  1  0  0  0  0
  7  8  1  0  0  0  0
  7  9  1  0  0  0  0
  7 10  1  0  0  0  0
 10 11  1  0  0  0  0
 10 12  1  0  0  0  0
 10 13  1  0  0  0  0
M  END
> <VConfSearch Rank>
501

> <Conf_Id>
0

> <Delta U+W>
0.000

> <U+W>
-58.332

> <U>
8.390

> <W>
-66.722

> <W(PB)>
-68.455

> <W(SA)>
1.733

> <Valence>
6.333

> <Coulomb>
1.215

> <VdW>
0.842

> <VdW6>
-3.344

> <VdW12>
4.186

> <Bond>
0.091

> <Angle>
2.713

> <Pdih>
3.529

> <Idih>
0.000

> <Tether>
0.000

$$$$
VeraChem MOL file


 13 12  0  0  0  0  0  0  0  0999 V2000     
   17.8887   18.9147   22.0093 C   0  0  0  0  0  0  0  0  0  0  0  0
   17.4395   17.8174   22.2728 O   0  5  0  0  0  0  0  0  0  0  0  0
   17.2529   19.7822   21.4448 O   0  0  0  0  0  0  0  0  0  0  0  0
   19.3347   19.2129   22.3908 C   0  0  0  0  0  0  0  0  0  0  0  0
   19.5660   18.6609   23.3099 H   0  0  0  0  0  0  0  0  0  0  0  0
   19.4121   20.2811   22.6271 H   0  0  0  0  0  0  0  0  0  0  0  0
   20.3427   18.8393   21.2771 C   0  0  0  0  0  0  0  0  0  0  0  0
   20.2493   17.7698   21.0420 H   0  0  0  0  0  0  0  0  0  0  0  0
   20.0954   19.3905   20.3591 H   0  0  0  0  0  0  0  0  0  0  0  0
   21.7939   19.1524   21.6933 C   0  0  0  0  0  0  0  0  0  0  0  0
   22.4932   18.8811   20.8917 H   0  0  0  0  0  0  0  0  0  0  0  0
   21.9196   20.2225   21.9050 H   0  0  0  0  0  0  0  0  0  0  0  0
   22.0747   18.5893   22.5931 H   0  0  0  0  0  0  0  0  0  0  0  0
  1  2  1  0  0  0  0
  1  3  2  0  0  0  0
  1  4  1  0  0  0  0
  4  5  1  0  0  0  0
  4  6  1  0  0  0  0
  4  7  1  0  0  0  0
  7  8  1  0  0  0  0
  7  9  1  0  0  0  0
  7 10  1  0  0  0  0
 10 11  1  0  0  0  0
 10 12  1  0  0  0  0
 10 13  1  0  0  0  0
M  END
> <VConfSearch Rank>
502

> <Conf_Id>
1

> <Delta U+W>
-1.339

> <U+W>
-59.672

> <U>
7.389

> <W>
-67.061

> <W(PB)>
-68.767

> <W(SA)>
1.707

> <Valence>
5.822

> <Coulomb>
1.255

> <VdW>
0.312

> <VdW6>
-3.061

> <VdW12>
3.372

> <Bond>
0.059

> <Angle>
2.241

> <Pdih>
3.522

> <Idih>
0.000

> <Tether>
0.000

$$$$
VeraChem MOL file


 13 12  0  0  0  0  0  0  0  0999 V2000     
   21.3279   17.6416   21.9210 C   0  0  0  0  0  0  0  0  0  0  0  0
   21.0950   16.7555   21.1230 O   0  5  0  0  0  0  0  0  0  0  0  0
   22.4400   18.0884   22.1197 O   0  0  0  0  0  0  0  0  0  0  0  0
   20.1658   18.1958   22.7414 C   0  0  0  0  0  0  0  0  0  0  0  0
   20.5716   18.7305   23.6090 H   0  0  0  0  0  0  0  0  0  0  0  0
   19.6034   17.3393   23.1319 H   0  0  0  0  0  0  0  0  0  0  0  0
   19.2099   19.1199   21.9441 C   0  0  0  0  0  0  0  0  0  0  0  0
   18.8416   18.5888   21.0551 H   0  0  0  0  0  0  0  0  0  0  0  0
   18.3309   19.3478   22.5623 H   0  0  0  0  0  0  0  0  0  0  0  0
   19.8838   20.4412   21.5197 C   0  0  0  0  0  0  0  0  0  0  0  0
   20.7429   20.2527   20.8623 H   0  0  0  0  0  0  0  0  0  0  0  0
   19.1754   21.0793   20.9756 H   0  0  0  0  0  0  0  0  0  0  0  0
   20.2399   20.9991   22.3956 H   0  0  0  0  0  0  0  0  0  0  0  0
  1  2  1  0  0  0  0
  1  3  2  0  0  0  0
  1  4  1  0  0  0  0
  4  5  1  0  0  0  0
  4  6  1  0  0  0  0
  4  7  1  0  0  0  0
  7  8  1  0  0  0  0
  7  9  1  0  0  0  0
  7 10  1  0  0  0  0
 10 11  1  0  0  0  0
 10 12  1  0  0  0  0
 10 13  1  0  0  0  0
M  END
> <VConfSearch Rank>
503

> <Conf_Id>
4

> <Delta U+W>
0.281

> <U+W>
-58.051

> <U>
9.781

> <W>
-67.832

> <W(PB)>
-69.535

> <W(SA)>
1.703

> <Valence>
6.123

> <Coulomb>
3.449

> <VdW>
0.209

> <VdW6>
-3.762

> <VdW12>
3.972

> <Bond>
0.078

> <Angle>
2.428

> <Pdih>
3.616

> <Idih>
0.002

> <Tether>
0.000

$$$$
VeraChem MOL file


 13 12  0  0  0  0  0  0  0  0999 V2000     
   21.3496   20.0571   21.2859 C   0  0  0  0  0  0  0  0  0  0  0  0
   20.9530   20.4791   20.2179 O   0  5  0  0  0  0  0  0  0  0  0  0
   21.9891   20.7250   22.0740 O   0  0  0  0  0  0  0  0  0  0  0  0
   21.0614   18.6011   21.6431 C   0  0  0  0  0  0  0  0  0  0  0  0
   22.0023   18.1570   21.9895 H   0  0  0  0  0  0  0  0  0  0  0  0
   20.7756   18.0650   20.7298 H   0  0  0  0  0  0  0  0  0  0  0  0
   19.9734   18.4182   22.7321 C   0  0  0  0  0  0  0  0  0  0  0  0
   19.9389   17.3621   23.0327 H   0  0  0  0  0  0  0  0  0  0  0  0
   20.2492   18.9925   23.6277 H   0  0  0  0  0  0  0  0  0  0  0  0
   18.5740   18.8499   22.2469 C   0  0  0  0  0  0  0  0  0  0  0  0
   18.2690   18.2720   21.3647 H   0  0  0  0  0  0  0  0  0  0  0  0
   17.8253   18.6894   23.0335 H   0  0  0  0  0  0  0  0  0  0  0  0
   18.5603   19.9148   21.9792 H   0  0  0  0  0  0  0  0  0  0  0  0
  1  2  1  0  0  0  0
  1  3  2  0  0  0  0
  1  4  1  0  0  0  0
  4  5  1  0  0  0  0
  4  6  1  0  0  0  0
  4  7  1  0  0  0  0
  7  8  1  0  0  0  0
  7  9  1  0  0  0  0
  7 10  1  0  0  0  0
 10 11  1  0  0  0  0
 10 12  1  0  0  0  0
 10 13  1  0  0  0  0
M  END
> <VConfSearch Rank>
504

> <Conf_Id>
36

> <Delta U+W>
0.272

> <U+W>
-58.060

> <U>
9.781

> <W>
-67.841

> <W(PB)>
-69.537

> <W(SA)>
1.696

> <Valence>
6.123

> <Coulomb>
3.449

> <VdW>
0.209

> <VdW6>
-3.762

> <VdW12>
3.972

> <Bond>
0.078

> <Angle>
2.428

> <Pdih>
3.616

> <Idih>
0.002

> <Tether>
0.000

$$$$
VeraChem MOL file


 13 12  0  0  0  0  0  0  0  0999 V2000     
   21.3204   20.0637   20.5042 C   0  0  0  0  0  0  0  0  0  0  0  0
   22.3469   20.0468   21.1549 O   0  5  0  0  0  0  0  0  0  0  0  0
   21.2373   20.5915   19.4137 O   0  0  0  0  0  0  0  0  0  0  0  0
   20.0583   19.3989   21.0571 C   0  0  0  0  0  0  0  0  0  0  0  0
   19.7366   18.6476   20.3261 H   0  0  0  0  0  0  0  0  0  0  0  0
   19.2744   20.1646   21.0954 H   0  0  0  0  0  0  0  0  0  0  0  0
   20.2119   18.7383   22.4521 C   0  0  0  0  0  0  0  0  0  0  0  0
   20.9999   17.9732   22.4123 H   0  0  0  0  0  0  0  0  0  0  0  0
   20.5372   19.4922   23.1825 H   0  0  0  0  0  0  0  0  0  0  0  0
   18.8927   18.0959   22.9264 C   0  0  0  0  0  0  0  0  0  0  0  0
   18.5621   17.3159   22.2279 H   0  0  0  0  0  0  0  0  0  0  0  0
   19.0209   17.6341   23.9141 H   0  0  0  0  0  0  0  0  0  0  0  0
   18.0957   18.8470   23.0043 H   0  0  0  0  0  0  0  0  0  0  0  0
  1  2  1  0  0  0  0
  1  3  2  0  0  0  0
  1  4  1  0  0  0  0
  4  5  1  0  0  0  0
  4  6  1  0  0  0  0
  4  7  1  0  0  0  0
  7  8  1  0  0  0  0
  7  9  1  0  0  0  0
  7 10  1  0  0  0  0
 10 11  1  0  0  0  0
 10 12  1  0  0  0  0
 10 13  1  0  0  0  0
M  END
> <VConfSearch Rank>
505

> <Conf_Id>
0

> <Delta U+W>
0.000

> <U+W>
-58.332

> <U>
8.390

> <W>
-66.722

> <W(PB)>
-68.455

> <W(SA)>
1.733

> <Valence>
6.333

> <Coulomb>
1.215

> <VdW>
0.842

> <VdW6>
-3.344

> <VdW12>
4.186

> <Bond>
0.091

> <Angle>
2.713

> <Pdih>
3.529

> <Idih>
0.000

> <Tether>
0.000

$$$$
VeraChem MOL file


 13 12  0  0  0  0  0  0  0  0999 V2000     
   21.6779   18.3640   22.9058 C   0  0  0  0  0  0  0  0  0  0  0  0
   22.7417   18.4277   22.3230 O   0  5  0  0  0  0  0  0  0  0  0  0
   21.4571   17.5917   23.8169 O   0  0  0  0  0  0  0  0  0  0  0  0
   20.5529   19.2905   22.4569 C   0  0  0  0  0  0  0  0  0  0  0  0
   21.0021   20.2262   22.1025 H   0  0  0  0  0  0  0  0  0  0  0  0
   19.9428   19.5368   23.3345 H   0  0  0  0  0  0  0  0  0  0  0  0
   19.6667   18.6720   21.3488 C   0  0  0  0  0  0  0  0  0  0  0  0
   20.2896   18.4203   20.4791 H   0  0  0  0  0  0  0  0  0  0  0  0
   19.2300   17.7308   21.7114 H   0  0  0  0  0  0  0  0  0  0  0  0
   18.5402   19.6323   20.9175 C   0  0  0  0  0  0  0  0  0  0  0  0
   17.9232   19.1766   20.1320 H   0  0  0  0  0  0  0  0  0  0  0  0
   17.8854   19.8753   21.7647 H   0  0  0  0  0  0  0  0  0  0  0  0
   18.9531   20.5700   20.5229 H   0  0  0  0  0  0  0  0  0  0  0  0
  1  2  1  0  0  0  0
  1  3  2  0  0  0  0
  1  4  1  0  0  0  0
  4  5  1  0  0  0  0
  4  6  1  0  0  0  0
  4  7  1  0  0  0  0
  7  8  1  0  0  0  0
  7  9  1  0  0  0  0
  7 10  1  0  0  0  0
 10 11  1  0  0  0  0
 10 12  1  0  0  0  0
 10 13  1  0  0  0  0
M  END
> <VConfSearch Rank>
506

> <Conf_Id>
1

> <Delta U+W>
-1.339

> <U+W>
-59.672

> <U>
7.389

> <W>
-67.061

> <W(PB)>
-68.767

> <W(SA)>
1.707

> <Valence>
5.822

> <Coulomb>
1.255

> <VdW>
0.312

> <VdW6>
-3.061

> <VdW12>
3.372

> <Bond>
0.059

> <Angle>
2.241

> <Pdih>
3.522

> <Idih>
0.000

> <Tether>
0.000

$$$$
VeraChem MOL file


 13 12  0  0  0  0  0  0  0  0999 V2000     
   19.9033   17.2290   21.6249 C   0  0  0  0  0  0  0  0  0  0  0  0
   20.3696   16.4476   22.4299 O   0  5  0  0  0  0  0  0  0  0  0  0
   18.8333   17.0638   21.0737 O   0  0  0  0  0  0  0  0  0  0  0  0
   20.7235   18.4644   21.2619 C   0  0  0  0  0  0  0  0  0  0  0  0
   20.3368   18.8797   20.3232 H   0  0  0  0  0  0  0  0  0  0  0  0
   21.7482   18.1293   21.0615 H   0  0  0  0  0  0  0  0  0  0  0  0
   20.7443   19.5577   22.3608 C   0  0  0  0  0  0  0  0  0  0  0  0
   21.0940   19.1214   23.3070 H   0  0  0  0  0  0  0  0  0  0  0  0
   21.4712   20.3332   22.0832 H   0  0  0  0  0  0  0  0  0  0  0  0
   19.3631   20.2128   22.5681 C   0  0  0  0  0  0  0  0  0  0  0  0
   18.6193   19.4720   22.8903 H   0  0  0  0  0  0  0  0  0  0  0  0
   19.4170   20.9942   23.3372 H   0  0  0  0  0  0  0  0  0  0  0  0
   19.0045   20.6749   21.6390 H   0  0  0  0  0  0  0  0  0  0  0  0
  1  2  1  0  0  0  0
  1  3  2  0  0  0  0
  1  4  1  0  0  0  0
  4  5  1  0  0  0  0
  4  6  1  0  0  0  0
  4  7  1  0  0  0  0
  7  8  1  0  0  0  0
  7  9  1  0  0  0  0
  7 10  1  0  0  0  0
 10 11  1  0  0  0  0
 10 12  1  0  0  0  0
 10 13  1  0  0  0  0
M  END
> <VConfSearch Rank>
507

> <Conf_Id>
4

> <Delta U+W>
0.281

> <U+W>
-58.051

> <U>
9.781

> <W>
-67.832

> <W(PB)>
-69.535

> <W(SA)>
1.703

> <Valence>
6.123

> <Coulomb>
3.449

> <VdW>
0.209

> <VdW6>
-3.762

> <VdW12>
3.972

> <Bond>
0.078

> <Angle>
2.428

> <Pdih>
3.616

> <Idih>
0.002

> <Tether>
0.000

$$$$
VeraChem MOL file


 13 12  0  0  0  0  0  0  0  0999 V2000     
   19.9816   19.5814   23.6748 C   0  0  0  0  0  0  0  0  0  0  0  0
   19.9130   20.7943   23.6608 O   0  5  0  0  0  0  0  0  0  0  0  0
   19.3561   18.8842   24.4486 O   0  0  0  0  0  0  0  0  0  0  0  0
   20.9299   18.8968   22.6936 C   0  0  0  0  0  0  0  0  0  0  0  0
   21.5208   18.1696   23.2632 H   0  0  0  0  0  0  0  0  0  0  0  0
   21.6342   19.6434   22.3065 H   0  0  0  0  0  0  0  0  0  0  0  0
   20.2174   18.1762   21.5204 C   0  0  0  0  0  0  0  0  0  0  0  0
   20.9560   17.5907   20.9559 H   0  0  0  0  0  0  0  0  0  0  0  0
   19.4849   17.4604   21.9190 H   0  0  0  0  0  0  0  0  0  0  0  0
   19.5157   19.1605   20.5619 C   0  0  0  0  0  0  0  0  0  0  0  0
   20.2345   19.8718   20.1344 H   0  0  0  0  0  0  0  0  0  0  0  0
   19.0390   18.6204   19.7336 H   0  0  0  0  0  0  0  0  0  0  0  0
   18.7379   19.7333   21.0842 H   0  0  0  0  0  0  0  0  0  0  0  0
  1  2  1  0  0  0  0
  1  3  2  0  0  0  0
  1  4  1  0  0  0  0
  4  5  1  0  0  0  0
  4  6  1  0  0  0  0
  4  7  1  0  0  0  0
  7  8  1  0  0  0  0
  7  9  1  0  0  0  0
  7 10  1  0  0  0  0
 10 11  1  0  0  0  0
 10 12  1  0  0  0  0
 10 13  1  0  0  0  0
M  END
> <VConfSearch Rank>
508

> <Conf_Id>
36

> <Delta U+W>
0.272

> <U+W>
-58.060

> <U>
9.781

> <W>
-67.841

> <W(PB)>
-69.537

> <W(SA)>
1.696

> <Valence>
6.123

> <Coulomb>
3.449

> <VdW>
0.209

> <VdW6>
-3.762

> <VdW12>
3.972

> <Bond>
0.078

> <Angle>
2.428

> <Pdih>
3.616

> <Idih>
0.002

> <Tether>
0.000

$$$$
VeraChem MOL file


 13 12  0  0  0  0  0  0  0  0999 V2000     
   18.7412   17.5297   20.9597 C   0  0  0  0  0  0  0  0  0  0  0  0
   18.6252   17.9777   19.8358 O   0  5  0  0  0  0  0  0  0  0  0  0
   18.1999   16.5049   21.3223 O   0  0  0  0  0  0  0  0  0  0  0  0
   19.6014   18.2674   21.9876 C   0  0  0  0  0  0  0  0  0  0  0  0
   20.3703   17.5669   22.3347 H   0  0  0  0  0  0  0  0  0  0  0  0
   18.9615   18.4930   22.8490 H   0  0  0  0  0  0  0  0  0  0  0  0
   20.2726   19.5703   21.4798 C   0  0  0  0  0  0  0  0  0  0  0  0
   20.9111   19.3424   20.6149 H   0  0  0  0  0  0  0  0  0  0  0  0
   19.5006   20.2697   21.1297 H   0  0  0  0  0  0  0  0  0  0  0  0
   21.1167   20.2427   22.5813 C   0  0  0  0  0  0  0  0  0  0  0  0
   21.9162   19.5742   22.9268 H   0  0  0  0  0  0  0  0  0  0  0  0
   21.5832   21.1620   22.2037 H   0  0  0  0  0  0  0  0  0  0  0  0
   20.4943   20.5088   23.4458 H   0  0  0  0  0  0  0  0  0  0  0  0
  1  2  1  0  0  0  0
  1  3  2  0  0  0  0
  1  4  1  0  0  0  0
  4  5  1  0  0  0  0
  4  6  1  0  0  0  0
  4  7  1  0  0  0  0
  7  8  1  0  0  0  0
  7  9  1  0  0  0  0
  7 10  1  0  0  0  0
 10 11  1  0  0  0  0
 10 12  1  0  0  0  0
 10 13  1  0  0  0  0
M  END
> <VConfSearch Rank>
509

> <Conf_Id>
0

> <Delta U+W>
0.000

> <U+W>
-58.332

> <U>
8.390

> <W>
-66.722

> <W(PB)>
-68.455

> <W(SA)>
1.733

> <Valence>
6.333

> <Coulomb>
1.215

> <VdW>
0.842

> <VdW6>
-3.344

> <VdW12>
4.186

> <Bond>
0.091

> <Angle>
2.713

> <Pdih>
3.529

> <Idih>
0.000

> <Tether>
0.000

$$$$
VeraChem MOL file


 13 12  0  0  0  0  0  0  0  0999 V2000     
   18.9675   18.8528   19.9933 C   0  0  0  0  0  0  0  0  0  0  0  0
   19.5325   19.3092   19.0197 O   0  5  0  0  0  0  0  0  0  0  0  0
   17.7635   18.7084   20.0640 O   0  0  0  0  0  0  0  0  0  0  0  0
   19.8134   18.4572   21.1988 C   0  0  0  0  0  0  0  0  0  0  0  0
   20.7851   18.1038   20.8329 H   0  0  0  0  0  0  0  0  0  0  0  0
   19.3263   17.6084   21.6940 H   0  0  0  0  0  0  0  0  0  0  0  0
   20.0127   19.6174   22.2039 C   0  0  0  0  0  0  0  0  0  0  0  0
   20.4920   20.4652   21.6947 H   0  0  0  0  0  0  0  0  0  0  0  0
   19.0330   19.9695   22.5560 H   0  0  0  0  0  0  0  0  0  0  0  0
   20.8711   19.1859   23.4097 C   0  0  0  0  0  0  0  0  0  0  0  0
   21.0011   20.0209   24.1105 H   0  0  0  0  0  0  0  0  0  0  0  0
   20.3970   18.3580   23.9532 H   0  0  0  0  0  0  0  0  0  0  0  0
   21.8673   18.8575   23.0852 H   0  0  0  0  0  0  0  0  0  0  0  0
  1  2  1  0  0  0  0
  1  3  2  0  0  0  0
  1  4  1  0  0  0  0
  4  5  1  0  0  0  0
  4  6  1  0  0  0  0
  4  7  1  0  0  0  0
  7  8  1  0  0  0  0
  7  9  1  0  0  0  0
  7 10  1  0  0  0  0
 10 11  1  0  0  0  0
 10 12  1  0  0  0  0
 10 13  1  0  0  0  0
M  END
> <VConfSearch Rank>
510

> <Conf_Id>
1

> <Delta U+W>
-1.339

> <U+W>
-59.672

> <U>
7.389

> <W>
-67.061

> <W(PB)>
-68.767

> <W(SA)>
1.707

> <Valence>
5.822

> <Coulomb>
1.255

> <VdW>
0.312

> <VdW6>
-3.061

> <VdW12>
3.372

> <Bond>
0.059

> <Angle>
2.241

> <Pdih>
3.522

> <Idih>
0.000

> <Tether>
0.000

$$$$
VeraChem MOL file


 13 12  0  0  0  0  0  0  0  0999 V2000     
   19.8214   20.4641   21.0594 C   0  0  0  0  0  0  0  0  0  0  0  0
   19.9817   21.5097   21.6571 O   0  5  0  0  0  0  0  0  0  0  0  0
   20.1555   20.2955   19.9036 O   0  0  0  0  0  0  0  0  0  0  0  0
   19.1312   19.3152   21.7903 C   0  0  0  0  0  0  0  0  0  0  0  0
   18.7799   18.5874   21.0486 H   0  0  0  0  0  0  0  0  0  0  0  0
   18.2391   19.7265   22.2775 H   0  0  0  0  0  0  0  0  0  0  0  0
   20.0190   18.6122   22.8491 C   0  0  0  0  0  0  0  0  0  0  0  0
   20.3991   19.3564   23.5630 H   0  0  0  0  0  0  0  0  0  0  0  0
   19.4030   17.9082   23.4251 H   0  0  0  0  0  0  0  0  0  0  0  0
   21.1996   17.8473   22.2157 C   0  0  0  0  0  0  0  0  0  0  0  0
   21.8628   18.5292   21.6672 H   0  0  0  0  0  0  0  0  0  0  0  0
   21.7953   17.3459   22.9895 H   0  0  0  0  0  0  0  0  0  0  0  0
   20.8407   17.0825   21.5146 H   0  0  0  0  0  0  0  0  0  0  0  0
  1  2  1  0  0  0  0
  1  3  2  0  0  0  0
  1  4  1  0  0  0  0
  4  5  1  0  0  0  0
  4  6  1  0  0  0  0
  4  7  1  0  0  0  0
  7  8  1  0  0  0  0
  7  9  1  0  0  0  0
  7 10  1  0  0  0  0
 10 11  1  0  0  0  0
 10 12  1  0  0  0  0
 10 13  1  0  0  0  0
M  END
> <VConfSearch Rank>
511

> <Conf_Id>
4

> <Delta U+W>
0.281

> <U+W>
-58.051

> <U>
9.781

> <W>
-67.832

> <W(PB)>
-69.535

> <W(SA)>
1.703

> <Valence>
6.123

> <Coulomb>
3.449

> <VdW>
0.209

> <VdW6>
-3.762

> <VdW12>
3.972

> <Bond>
0.078

> <Angle>
2.428

> <Pdih>
3.616

> <Idih>
0.002

> <Tether>
0.000

$$$$
VeraChem MOL file


 13 12  0  0  0  0  0  0  0  0999 V2000     
   21.2770   18.8705   23.3589 C   0  0  0  0  0  0  0  0  0  0  0  0
   20.6694   18.7415   24.4029 O   0  5  0  0  0  0  0  0  0  0  0  0
   22.3301   18.3121   23.1236 O   0  0  0  0  0  0  0  0  0  0  0  0
   20.7079   19.8110   22.2995 C   0  0  0  0  0  0  0  0  0  0  0  0
   21.5261   20.4597   21.9646 H   0  0  0  0  0  0  0  0  0  0  0  0
   19.9611   20.4611   22.7714 H   0  0  0  0  0  0  0  0  0  0  0  0
   20.0893   19.0880   21.0755 C   0  0  0  0  0  0  0  0  0  0  0  0
   19.8452   19.8311   20.3041 H   0  0  0  0  0  0  0  0  0  0  0  0
   20.8327   18.4086   20.6354 H   0  0  0  0  0  0  0  0  0  0  0  0
   18.8135   18.3002   21.4379 C   0  0  0  0  0  0  0  0  0  0  0  0
   18.0482   18.9650   21.8595 H   0  0  0  0  0  0  0  0  0  0  0  0
   18.3907   17.8175   20.5472 H   0  0  0  0  0  0  0  0  0  0  0  0
   19.0298   17.5168   22.1764 H   0  0  0  0  0  0  0  0  0  0  0  0
  1  2  1  0  0  0  0
  1  3  2  0  0  0  0
  1  4  1  0  0  0  0
  4  5  1  0  0  0  0
  4  6  1  0  0  0  0
  4  7  1  0  0  0  0
  7  8  1  0  0  0  0
  7  9  1  0  0  0  0
  7 10  1  0  0  0  0
 10 11  1  0  0  0  0
 10 12  1  0  0  0  0
 10 13  1  0  0  0  0
M  END
> <VConfSearch Rank>
512

> <Conf_Id>
36

> <Delta U+W>
0.272

> <U+W>
-58.060

> <U>
9.781

> <W>
-67.841

> <W(PB)>
-69.537

> <W(SA)>
1.696

> <Valence>
6.123

> <Coulomb>
3.449

> <VdW>
0.209

> <VdW6>
-3.762

> <VdW12>
3.972

> <Bond>
0.078

> <Angle>
2.428

> <Pdih>
3.616

> <Idih>
0.002

> <Tether>
0.000

$$$$
VeraChem MOL file


 13 12  0  0  0  0  0  0  0  0999 V2000     
   20.3928   16.9091   22.0098 C   0  0  0  0  0  0  0  0  0  0  0  0
   21.3790   16.8015   21.3075 O   0  5  0  0  0  0  0  0  0  0  0  0
   19.8875   15.9689   22.5889 O   0  0  0  0  0  0  0  0  0  0  0  0
   19.7346   18.2781   22.1922 C   0  0  0  0  0  0  0  0  0  0  0  0
   19.7194   18.4938   23.2672 H   0  0  0  0  0  0  0  0  0  0  0  0
   18.6908   18.1855   21.8694 H   0  0  0  0  0  0  0  0  0  0  0  0
   20.4141   19.4484   21.4341 C   0  0  0  0  0  0  0  0  0  0  0  0
   21.4608   19.5376   21.7570 H   0  0  0  0  0  0  0  0  0  0  0  0
   20.4310   19.2290   20.3574 H   0  0  0  0  0  0  0  0  0  0  0  0
   19.6836   20.7846   21.6769 C   0  0  0  0  0  0  0  0  0  0  0  0
   19.6802   21.0422   22.7442 H   0  0  0  0  0  0  0  0  0  0  0  0
   20.1783   21.5999   21.1330 H   0  0  0  0  0  0  0  0  0  0  0  0
   18.6421   20.7311   21.3334 H   0  0  0  0  0  0  0  0  0  0  0  0
  1  2  1  0  0  0  0
  1  3  2  0  0  0  0
  1  4  1  0  0  0  0
  4  5  1  0  0  0  0
  4  6  1  0  0  0  0
  4  7  1  0  0  0  0
  7  8  1  0  0  0  0
  7  9  1  0  0  0  0
  7 10  1  0  0  0  0
 10 11  1  0  0  0  0
 10 12  1  0  0  0  0
 10 13  1  0  0  0  0
M  END
> <VConfSearch Rank>
513

> <Conf_Id>
0

> <Delta U+W>
0.000

> <U+W>
-58.332

> <U>
8.390

> <W>
-66.722

> <W(PB)>
-68.455

> <W(SA)>
1.733

> <Valence>
6.333

> <Coulomb>
1.215

> <VdW>
0.842

> <VdW6>
-3.344

> <VdW12>
4.186

> <Bond>
0.091

> <Angle>
2.713

> <Pdih>
3.529

> <Idih>
0.000

> <Tether>
0.000

$$$$
VeraChem MOL file


 13 12  0  0  0  0  0  0  0  0999 V2000     
   21.2472   20.3959   20.8128 C   0  0  0  0  0  0  0  0  0  0  0  0
   20.6929   21.1902   20.0798 O   0  5  0  0  0  0  0  0  0  0  0  0
   22.4044   20.0524   20.6776 O   0  0  0  0  0  0  0  0  0  0  0  0
   20.4412   19.7827   21.9530 C   0  0  0  0  0  0  0  0  0  0  0  0
   19.7133   20.5280   22.2959 H   0  0  0  0  0  0  0  0  0  0  0  0
   21.1246   19.5898   22.7889 H   0  0  0  0  0  0  0  0  0  0  0  0
   19.7156   18.4774   21.5461 C   0  0  0  0  0  0  0  0  0  0  0  0
   19.0417   18.6805   20.7021 H   0  0  0  0  0  0  0  0  0  0  0  0
   20.4533   17.7421   21.1953 H   0  0  0  0  0  0  0  0  0  0  0  0
   18.9107   17.8832   22.7192 C   0  0  0  0  0  0  0  0  0  0  0  0
   18.4039   16.9591   22.4117 H   0  0  0  0  0  0  0  0  0  0  0  0
   19.5682   17.6437   23.5653 H   0  0  0  0  0  0  0  0  0  0  0  0
   18.1458   18.5893   23.0683 H   0  0  0  0  0  0  0  0  0  0  0  0
  1  2  1  0  0  0  0
  1  3  2  0  0  0  0
  1  4  1  0  0  0  0
  4  5  1  0  0  0  0
  4  6  1  0  0  0  0
  4  7  1  0  0  0  0
  7  8  1  0  0  0  0
  7  9  1  0  0  0  0
  7 10  1  0  0  0  0
 10 11  1  0  0  0  0
 10 12  1  0  0  0  0
 10 13  1  0  0  0  0
M  END
> <VConfSearch Rank>
514

> <Conf_Id>
1

> <Delta U+W>
-1.339

> <U+W>
-59.672

> <U>
7.389

> <W>
-67.061

> <W(PB)>
-68.767

> <W(SA)>
1.707

> <Valence>
5.822

> <Coulomb>
1.255

> <VdW>
0.312

> <VdW6>
-3.061

> <VdW12>
3.372

> <Bond>
0.059

> <Angle>
2.241

> <Pdih>
3.522

> <Idih>
0.000

> <Tether>
0.000

$$$$
VeraChem MOL file


 13 12  0  0  0  0  0  0  0  0999 V2000     
   19.5802   17.2623   22.0702 C   0  0  0  0  0  0  0  0  0  0  0  0
   18.9805   16.9368   23.0755 O   0  5  0  0  0  0  0  0  0  0  0  0
   19.2755   16.8839   20.9567 O   0  0  0  0  0  0  0  0  0  0  0  0
   20.8019   18.1654   22.2209 C   0  0  0  0  0  0  0  0  0  0  0  0
   21.4003   18.1030   21.3037 H   0  0  0  0  0  0  0  0  0  0  0  0
   21.4168   17.7516   23.0289 H   0  0  0  0  0  0  0  0  0  0  0  0
   20.4624   19.6446   22.5372 C   0  0  0  0  0  0  0  0  0  0  0  0
   19.8286   19.6928   23.4338 H   0  0  0  0  0  0  0  0  0  0  0  0
   21.3894   20.1833   22.7767 H   0  0  0  0  0  0  0  0  0  0  0  0
   19.7573   20.3529   21.3620 C   0  0  0  0  0  0  0  0  0  0  0  0
   18.8022   19.8661   21.1236 H   0  0  0  0  0  0  0  0  0  0  0  0
   19.5492   21.4016   21.6110 H   0  0  0  0  0  0  0  0  0  0  0  0
   20.3837   20.3357   20.4606 H   0  0  0  0  0  0  0  0  0  0  0  0
  1  2  1  0  0  0  0
  1  3  2  0  0  0  0
  1  4  1  0  0  0  0
  4  5  1  0  0  0  0
  4  6  1  0  0  0  0
  4  7  1  0  0  0  0
  7  8  1  0  0  0  0
  7  9  1  0  0  0  0
  7 10  1  0  0  0  0
 10 11  1  0  0  0  0
 10 12  1  0  0  0  0
 10 13  1  0  0  0  0
M  END
> <VConfSearch Rank>
515

> <Conf_Id>
4

> <Delta U+W>
0.281

> <U+W>
-58.051

> <U>
9.781

> <W>
-67.832

> <W(PB)>
-69.535

> <W(SA)>
1.703

> <Valence>
6.123

> <Coulomb>
3.449

> <VdW>
0.209

> <VdW6>
-3.762

> <VdW12>
3.972

> <Bond>
0.078

> <Angle>
2.428

> <Pdih>
3.616

> <Idih>
0.002

> <Tether>
0.000

$$$$
VeraChem MOL file


 13 12  0  0  0  0  0  0  0  0999 V2000     
   21.1740   19.0449   23.4415 C   0  0  0  0  0  0  0  0  0  0  0  0
   20.5738   19.5703   24.3578 O   0  5  0  0  0  0  0  0  0  0  0  0
   21.9427   18.1158   23.5899 O   0  0  0  0  0  0  0  0  0  0  0  0
   20.9815   19.6026   22.0335 C   0  0  0  0  0  0  0  0  0  0  0  0
   21.9779   19.7347   21.5950 H   0  0  0  0  0  0  0  0  0  0  0  0
   20.5339   20.6012   22.1092 H   0  0  0  0  0  0  0  0  0  0  0  0
   20.1252   18.7027   21.1060 C   0  0  0  0  0  0  0  0  0  0  0  0
   20.1648   19.0998   20.0825 H   0  0  0  0  0  0  0  0  0  0  0  0
   20.5590   17.6935   21.0701 H   0  0  0  0  0  0  0  0  0  0  0  0
   18.6526   18.6209   21.5582 C   0  0  0  0  0  0  0  0  0  0  0  0
   18.1927   19.6176   21.5797 H   0  0  0  0  0  0  0  0  0  0  0  0
   18.0710   17.9934   20.8704 H   0  0  0  0  0  0  0  0  0  0  0  0
   18.5719   18.1857   22.5632 H   0  0  0  0  0  0  0  0  0  0  0  0
  1  2  1  0  0  0  0
  1  3  2  0  0  0  0
  1  4  1  0  0  0  0
  4  5  1  0  0  0  0
  4  6  1  0  0  0  0
  4  7  1  0  0  0  0
  7  8  1  0  0  0  0
  7  9  1  0  0  0  0
  7 10  1  0  0  0  0
 10 11  1  0  0  0  0
 10 12  1  0  0  0  0
 10 13  1  0  0  0  0
M  END
> <VConfSearch Rank>
516

> <Conf_Id>
36

> <Delta U+W>
0.272

> <U+W>
-58.060

> <U>
9.781

> <W>
-67.841

> <W(PB)>
-69.537

> <W(SA)>
1.696

> <Valence>
6.123

> <Coulomb>
3.449

> <VdW>
0.209

> <VdW6>
-3.762

> <VdW12>
3.972

> <Bond>
0.078

> <Angle>
2.428

> <Pdih>
3.616

> <Idih>
0.002

> <Tether>
0.000

$$$$
VeraChem MOL file


 13 12  0  0  0  0  0  0  0  0999 V2000     
   21.8493   19.5781   20.8841 C   0  0  0  0  0  0  0  0  0  0  0  0
   21.8954   20.7489   21.2071 O   0  5  0  0  0  0  0  0  0  0  0  0
   22.7037   19.0452   20.2051 O   0  0  0  0  0  0  0  0  0  0  0  0
   20.6743   18.7095   21.3376 C   0  0  0  0  0  0  0  0  0  0  0  0
   21.0895   17.8619   21.8956 H   0  0  0  0  0  0  0  0  0  0  0  0
   20.2029   18.2996   20.4364 H   0  0  0  0  0  0  0  0  0  0  0  0
   19.6085   19.4324   22.2021 C   0  0  0  0  0  0  0  0  0  0  0  0
   20.0835   19.8449   23.1031 H   0  0  0  0  0  0  0  0  0  0  0  0
   19.1958   20.2833   21.6422 H   0  0  0  0  0  0  0  0  0  0  0  0
   18.4659   18.4809   22.6108 C   0  0  0  0  0  0  0  0  0  0  0  0
   18.8491   17.6368   23.1992 H   0  0  0  0  0  0  0  0  0  0  0  0
   17.7223   19.0097   23.2213 H   0  0  0  0  0  0  0  0  0  0  0  0
   17.9543   18.0786   21.7265 H   0  0  0  0  0  0  0  0  0  0  0  0
  1  2  1  0  0  0  0
  1  3  2  0  0  0  0
  1  4  1  0  0  0  0
  4  5  1  0  0  0  0
  4  6  1  0  0  0  0
  4  7  1  0  0  0  0
  7  8  1  0  0  0  0
  7  9  1  0  0  0  0
  7 10  1  0  0  0  0
 10 11  1  0  0  0  0
 10 12  1  0  0  0  0
 10 13  1  0  0  0  0
M  END
> <VConfSearch Rank>
517

> <Conf_Id>
0

> <Delta U+W>
0.000

> <U+W>
-58.332

> <U>
8.390

> <W>
-66.722

> <W(PB)>
-68.455

> <W(SA)>
1.733

> <Valence>
6.333

> <Coulomb>
1.215

> <VdW>
0.842

> <VdW6>
-3.344

> <VdW12>
4.186

> <Bond>
0.091

> <Angle>
2.713

> <Pdih>
3.529

> <Idih>
0.000

> <Tether>
0.000

$$$$
VeraChem MOL file


 13 12  0  0  0  0  0  0  0  0999 V2000     
   20.2154   16.9878   22.2786 C   0  0  0  0  0  0  0  0  0  0  0  0
   21.0458   16.3878   21.6261 O   0  5  0  0  0  0  0  0  0  0  0  0
   19.2672   16.4506   22.8150 O   0  0  0  0  0  0  0  0  0  0  0  0
   20.3609   18.4996   22.4163 C   0  0  0  0  0  0  0  0  0  0  0  0
   21.4308   18.7411   22.4154 H   0  0  0  0  0  0  0  0  0  0  0  0
   19.9641   18.7929   23.3958 H   0  0  0  0  0  0  0  0  0  0  0  0
   19.6375   19.2809   21.2928 C   0  0  0  0  0  0  0  0  0  0  0  0
   20.0360   18.9718   20.3164 H   0  0  0  0  0  0  0  0  0  0  0  0
   18.5690   19.0238   21.2971 H   0  0  0  0  0  0  0  0  0  0  0  0
   19.8035   20.8046   21.4603 C   0  0  0  0  0  0  0  0  0  0  0  0
   19.2843   21.3409   20.6553 H   0  0  0  0  0  0  0  0  0  0  0  0
   19.3850   21.1424   22.4176 H   0  0  0  0  0  0  0  0  0  0  0  0
   20.8632   21.0900   21.4293 H   0  0  0  0  0  0  0  0  0  0  0  0
  1  2  1  0  0  0  0
  1  3  2  0  0  0  0
  1  4  1  0  0  0  0
  4  5  1  0  0  0  0
  4  6  1  0  0  0  0
  4  7  1  0  0  0  0
  7  8  1  0  0  0  0
  7  9  1  0  0  0  0
  7 10  1  0  0  0  0
 10 11  1  0  0  0  0
 10 12  1  0  0  0  0
 10 13  1  0  0  0  0
M  END
> <VConfSearch Rank>
518

> <Conf_Id>
1

> <Delta U+W>
-1.339

> <U+W>
-59.672

> <U>
7.389

> <W>
-67.061

> <W(PB)>
-68.767

> <W(SA)>
1.707

> <Valence>
5.822

> <Coulomb>
1.255

> <VdW>
0.312

> <VdW6>
-3.061

> <VdW12>
3.372

> <Bond>
0.059

> <Angle>
2.241

> <Pdih>
3.522

> <Idih>
0.000

> <Tether>
0.000

$$$$
VeraChem MOL file


 13 12  0  0  0  0  0  0  0  0999 V2000     
   21.6044   19.3911   22.9155 C   0  0  0  0  0  0  0  0  0  0  0  0
   22.4678   19.9786   22.2947 O   0  5  0  0  0  0  0  0  0  0  0  0
   21.3091   19.6542   24.0642 O   0  0  0  0  0  0  0  0  0  0  0  0
   20.8788   18.2386   22.2255 C   0  0  0  0  0  0  0  0  0  0  0  0
   20.3855   17.6259   22.9900 H   0  0  0  0  0  0  0  0  0  0  0  0
   21.6417   17.6059   21.7565 H   0  0  0  0  0  0  0  0  0  0  0  0
   19.8508   18.6862   21.1548 C   0  0  0  0  0  0  0  0  0  0  0  0
   20.3462   19.3329   20.4171 H   0  0  0  0  0  0  0  0  0  0  0  0
   19.4915   17.8029   20.6094 H   0  0  0  0  0  0  0  0  0  0  0  0
   18.6435   19.4252   21.7681 C   0  0  0  0  0  0  0  0  0  0  0  0
   18.9619   20.3402   22.2851 H   0  0  0  0  0  0  0  0  0  0  0  0
   17.9269   19.7103   20.9869 H   0  0  0  0  0  0  0  0  0  0  0  0
   18.1202   18.7880   22.4929 H   0  0  0  0  0  0  0  0  0  0  0  0
  1  2  1  0  0  0  0
  1  3  2  0  0  0  0
  1  4  1  0  0  0  0
  4  5  1  0  0  0  0
  4  6  1  0  0  0  0
  4  7  1  0  0  0  0
  7  8  1  0  0  0  0
  7  9  1  0  0  0  0
  7 10  1  0  0  0  0
 10 11  1  0  0  0  0
 10 12  1  0  0  0  0
 10 13  1  0  0  0  0
M  END
> <VConfSearch Rank>
519

> <Conf_Id>
4

> <Delta U+W>
0.281

> <U+W>
-58.051

> <U>
9.781

> <W>
-67.832

> <W(PB)>
-69.535

> <W(SA)>
1.703

> <Valence>
6.123

> <Coulomb>
3.449

> <VdW>
0.209

> <VdW6>
-3.762

> <VdW12>
3.972

> <Bond>
0.078

> <Angle>
2.428

> <Pdih>
3.616

> <Idih>
0.002

> <Tether>
0.000

$$$$
VeraChem MOL file


 13 12  0  0  0  0  0  0  0  0999 V2000     
   19.4728   18.9515   20.3247 C   0  0  0  0  0  0  0  0  0  0  0  0
   18.8714   17.9140   20.1301 O   0  5  0  0  0  0  0  0  0  0  0  0
   19.1179   20.0247   19.8794 O   0  0  0  0  0  0  0  0  0  0  0  0
   20.7616   18.9010   21.1414 C   0  0  0  0  0  0  0  0  0  0  0  0
   21.5232   19.4607   20.5854 H   0  0  0  0  0  0  0  0  0  0  0  0
   21.1061   17.8607   21.1905 H   0  0  0  0  0  0  0  0  0  0  0  0
   20.6310   19.4882   22.5702 C   0  0  0  0  0  0  0  0  0  0  0  0
   21.6284   19.5502   23.0264 H   0  0  0  0  0  0  0  0  0  0  0  0
   20.2461   20.5160   22.5116 H   0  0  0  0  0  0  0  0  0  0  0  0
   19.7146   18.6395   23.4757 C   0  0  0  0  0  0  0  0  0  0  0  0
   20.0937   17.6131   23.5660 H   0  0  0  0  0  0  0  0  0  0  0  0
   19.6596   19.0711   24.4836 H   0  0  0  0  0  0  0  0  0  0  0  0
   18.6946   18.5926   23.0718 H   0  0  0  0  0  0  0  0  0  0  0  0
  1  2  1  0  0  0  0
  1  3  2  0  0  0  0
  1  4  1  0  0  0  0
  4  5  1  0  0  0  0
  4  6  1  0  0  0  0
  4  7  1  0  0  0  0
  7  8  1  0  0  0  0
  7  9  1  0  0  0  0
  7 10  1  0  0  0  0
 10 11  1  0  0  0  0
 10 12  1  0  0  0  0
 10 13  1  0  0  0  0
M  END
> <VConfSearch Rank>
520

> <Conf_Id>
36

> <Delta U+W>
0.272

> <U+W>
-58.060

> <U>
9.781

> <W>
-67.841

> <W(PB)>
-69.537

> <W(SA)>
1.696

> <Valence>
6.123

> <Coulomb>
3.449

> <VdW>
0.209

> <VdW6>
-3.762

> <VdW12>
3.972

> <Bond>
0.078

> <Angle>
2.428

> <Pdih>
3.616

> <Idih>
0.002

> <Tether>
0.000

$$$$
VeraChem MOL file


 13 12  0  0  0  0  0  0  0  0999 V2000     
   19.5262   21.0699   21.9606 C   0  0  0  0  0  0  0  0  0  0  0  0
   20.4955   21.5604   21.4153 O   0  5  0  0  0  0  0  0  0  0  0  0
   18.6123   21.7334   22.4072 O   0  0  0  0  0  0  0  0  0  0  0  0
   19.4234   19.5505   22.1067 C   0  0  0  0  0  0  0  0  0  0  0  0
   18.4911   19.2370   21.6221 H   0  0  0  0  0  0  0  0  0  0  0  0
   19.3182   19.3305   23.1758 H   0  0  0  0  0  0  0  0  0  0  0  0
   20.6129   18.7447   21.5220 C   0  0  0  0  0  0  0  0  0  0  0  0
   20.7183   18.9689   20.4513 H   0  0  0  0  0  0  0  0  0  0  0  0
   21.5465   19.0625   22.0069 H   0  0  0  0  0  0  0  0  0  0  0  0
   20.4221   17.2268   21.7150 C   0  0  0  0  0  0  0  0  0  0  0  0
   19.5103   16.8783   21.2123 H   0  0  0  0  0  0  0  0  0  0  0  0
   21.2727   16.6739   21.2955 H   0  0  0  0  0  0  0  0  0  0  0  0
   20.3450   16.9728   22.7804 H   0  0  0  0  0  0  0  0  0  0  0  0
  1  2  1  0  0  0  0
  1  3  2  0  0  0  0
  1  4  1  0  0  0  0
  4  5  1  0  0  0  0
  4  6  1  0  0  0  0
  4  7  1  0  0  0  0
  7  8  1  0  0  0  0
  7  9  1  0  0  0  0
  7 10  1  0  0  0  0
 10 11  1  0  0  0  0
 10 12  1  0  0  0  0
 10 13  1  0  0  0  0
M  END
> <VConfSearch Rank>
521

> <Conf_Id>
0

> <Delta U+W>
0.000

> <U+W>
-58.332

> <U>
8.390

> <W>
-66.722

> <W(PB)>
-68.455

> <W(SA)>
1.733

> <Valence>
6.333

> <Coulomb>
1.215

> <VdW>
0.842

> <VdW6>
-3.344

> <VdW12>
4.186

> <Bond>
0.091

> <Angle>
2.713

> <Pdih>
3.529

> <Idih>
0.000

> <Tether>
0.000

$$$$
VeraChem MOL file


 13 12  0  0  0  0  0  0  0  0999 V2000     
   19.0062   17.3042   22.5263 C   0  0  0  0  0  0  0  0  0  0  0  0
   17.8728   17.1356   22.1236 O   0  5  0  0  0  0  0  0  0  0  0  0
   19.4278   16.8301   23.5621 O   0  0  0  0  0  0  0  0  0  0  0  0
   19.9449   18.1732   21.6961 C   0  0  0  0  0  0  0  0  0  0  0  0
   19.6832   18.0449   20.6388 H   0  0  0  0  0  0  0  0  0  0  0  0
   20.9656   17.7929   21.8250 H   0  0  0  0  0  0  0  0  0  0  0  0
   19.8817   19.6707   22.0826 C   0  0  0  0  0  0  0  0  0  0  0  0
   18.8533   20.0380   21.9591 H   0  0  0  0  0  0  0  0  0  0  0  0
   20.1360   19.7860   23.1455 H   0  0  0  0  0  0  0  0  0  0  0  0
   20.8410   20.5214   21.2261 C   0  0  0  0  0  0  0  0  0  0  0  0
   20.7821   21.5791   21.5145 H   0  0  0  0  0  0  0  0  0  0  0  0
   21.8803   20.1920   21.3560 H   0  0  0  0  0  0  0  0  0  0  0  0
   20.5877   20.4460   20.1604 H   0  0  0  0  0  0  0  0  0  0  0  0
  1  2  1  0  0  0  0
  1  3  2  0  0  0  0
  1  4  1  0  0  0  0
  4  5  1  0  0  0  0
  4  6  1  0  0  0  0
  4  7  1  0  0  0  0
  7  8  1  0  0  0  0
  7  9  1  0  0  0  0
  7 10  1  0  0  0  0
 10 11  1  0  0  0  0
 10 12  1  0  0  0  0
 10 13  1  0  0  0  0
M  END
> <VConfSearch Rank>
522

> <Conf_Id>
1

> <Delta U+W>
-1.339

> <U+W>
-59.672

> <U>
7.389

> <W>
-67.061

> <W(PB)>
-68.767

> <W(SA)>
1.707

> <Valence>
5.822

> <Coulomb>
1.255

> <VdW>
0.312

> <VdW6>
-3.061

> <VdW12>
3.372

> <Bond>
0.059

> <Angle>
2.241

> <Pdih>
3.522

> <Idih>
0.000

> <Tether>
0.000

$$$$
VeraChem MOL file


 13 12  0  0  0  0  0  0  0  0999 V2000     
   21.2701   20.1013   21.2128 C   0  0  0  0  0  0  0  0  0  0  0  0
   22.0624   20.6538   21.9496 O   0  5  0  0  0  0  0  0  0  0  0  0
   21.5594   19.6882   20.1075 O   0  0  0  0  0  0  0  0  0  0  0  0
   19.8273   19.9515   21.6888 C   0  0  0  0  0  0  0  0  0  0  0  0
   19.1909   19.7406   20.8206 H   0  0  0  0  0  0  0  0  0  0  0  0
   19.5109   20.9240   22.0845 H   0  0  0  0  0  0  0  0  0  0  0  0
   19.6270   18.8632   22.7746 C   0  0  0  0  0  0  0  0  0  0  0  0
   20.2988   19.0608   23.6216 H   0  0  0  0  0  0  0  0  0  0  0  0
   18.6016   18.9272   23.1634 H   0  0  0  0  0  0  0  0  0  0  0  0
   19.8735   17.4389   22.2354 C   0  0  0  0  0  0  0  0  0  0  0  0
   20.9055   17.3254   21.8779 H   0  0  0  0  0  0  0  0  0  0  0  0
   19.7044   16.6927   23.0226 H   0  0  0  0  0  0  0  0  0  0  0  0
   19.1963   17.2124   21.4015 H   0  0  0  0  0  0  0  0  0  0  0  0
  1  2  1  0  0  0  0
  1  3  2  0  0  0  0
  1  4  1  0  0  0  0
  4  5  1  0  0  0  0
  4  6  1  0  0  0  0
  4  7  1  0  0  0  0
  7  8  1  0  0  0  0
  7  9  1  0  0  0  0
  7 10  1  0  0  0  0
 10 11  1  0  0  0  0
 10 12  1  0  0  0  0
 10 13  1  0  0  0  0
M  END
> <VConfSearch Rank>
523

> <Conf_Id>
4

> <Delta U+W>
0.281

> <U+W>
-58.051

> <U>
9.781

> <W>
-67.832

> <W(PB)>
-69.535

> <W(SA)>
1.703

> <Valence>
6.123

> <Coulomb>
3.449

> <VdW>
0.209

> <VdW6>
-3.762

> <VdW12>
3.972

> <Bond>
0.078

> <Angle>
2.428

> <Pdih>
3.616

> <Idih>
0.002

> <Tether>
0.000

$$$$
VeraChem MOL file


 13 12  0  0  0  0  0  0  0  0999 V2000     
   20.6368   19.0521   23.7094 C   0  0  0  0  0  0  0  0  0  0  0  0
   21.7717   19.4814   23.7700 O   0  5  0  0  0  0  0  0  0  0  0  0
   19.7719   19.3297   24.5162 O   0  0  0  0  0  0  0  0  0  0  0  0
   20.2863   18.0844   22.5818 C   0  0  0  0  0  0  0  0  0  0  0  0
   19.7649   17.2317   23.0329 H   0  0  0  0  0  0  0  0  0  0  0  0
   21.2168   17.6949   22.1510 H   0  0  0  0  0  0  0  0  0  0  0  0
   19.3999   18.7008   21.4693 C   0  0  0  0  0  0  0  0  0  0  0  0
   19.0742   17.9045   20.7861 H   0  0  0  0  0  0  0  0  0  0  0  0
   18.4900   19.1247   21.9167 H   0  0  0  0  0  0  0  0  0  0  0  0
   20.1380   19.7878   20.6607 C   0  0  0  0  0  0  0  0  0  0  0  0
   21.0399   19.3793   20.1862 H   0  0  0  0  0  0  0  0  0  0  0  0
   19.4903   20.1887   19.8703 H   0  0  0  0  0  0  0  0  0  0  0  0
   20.4402   20.6230   21.3064 H   0  0  0  0  0  0  0  0  0  0  0  0
  1  2  1  0  0  0  0
  1  3  2  0  0  0  0
  1  4  1  0  0  0  0
  4  5  1  0  0  0  0
  4  6  1  0  0  0  0
  4  7  1  0  0  0  0
  7  8  1  0  0  0  0
  7  9  1  0  0  0  0
  7 10  1  0  0  0  0
 10 11  1  0  0  0  0
 10 12  1  0  0  0  0
 10 13  1  0  0  0  0
M  END
> <VConfSearch Rank>
524

> <Conf_Id>
36

> <Delta U+W>
0.272

> <U+W>
-58.060

> <U>
9.781

> <W>
-67.841

> <W(PB)>
-69.537

> <W(SA)>
1.696

> <Valence>
6.123

> <Coulomb>
3.449

> <VdW>
0.209

> <VdW6>
-3.762

> <VdW12>
3.972

> <Bond>
0.078

> <Angle>
2.428

> <Pdih>
3.616

> <Idih>
0.002

> <Tether>
0.000

$$$$
VeraChem MOL file


 13 12  0  0  0  0  0  0  0  0999 V2000     
   20.6018   17.7267   23.4299 C   0  0  0  0  0  0  0  0  0  0  0  0
   21.4712   17.0749   22.8852 O   0  5  0  0  0  0  0  0  0  0  0  0
   20.2789   17.5608   24.5888 O   0  0  0  0  0  0  0  0  0  0  0  0
   19.8616   18.8126   22.6465 C   0  0  0  0  0  0  0  0  0  0  0  0
   19.9961   19.7566   23.1879 H   0  0  0  0  0  0  0  0  0  0  0  0
   18.7924   18.5720   22.6831 H   0  0  0  0  0  0  0  0  0  0  0  0
   20.3074   18.9883   21.1713 C   0  0  0  0  0  0  0  0  0  0  0  0
   21.3797   19.2265   21.1366 H   0  0  0  0  0  0  0  0  0  0  0  0
   20.1746   18.0404   20.6312 H   0  0  0  0  0  0  0  0  0  0  0  0
   19.5085   20.1015   20.4637 C   0  0  0  0  0  0  0  0  0  0  0  0
   19.6497   21.0670   20.9670 H   0  0  0  0  0  0  0  0  0  0  0  0
   19.8376   20.2109   19.4221 H   0  0  0  0  0  0  0  0  0  0  0  0
   18.4349   19.8714   20.4576 H   0  0  0  0  0  0  0  0  0  0  0  0
  1  2  1  0  0  0  0
  1  3  2  0  0  0  0
  1  4  1  0  0  0  0
  4  5  1  0  0  0  0
  4  6  1  0  0  0  0
  4  7  1  0  0  0  0
  7  8  1  0  0  0  0
  7  9  1  0  0  0  0
  7 10  1  0  0  0  0
 10 11  1  0  0  0  0
 10 12  1  0  0  0  0
 10 13  1  0  0  0  0
M  END
> <VConfSearch Rank>
525

> <Conf_Id>
0

> <Delta U+W>
0.000

> <U+W>
-58.332

> <U>
8.390

> <W>
-66.722

> <W(PB)>
-68.455

> <W(SA)>
1.733

> <Valence>
6.333

> <Coulomb>
1.215

> <VdW>
0.842

> <VdW6>
-3.344

> <VdW12>
4.186

> <Bond>
0.091

> <Angle>
2.713

> <Pdih>
3.529

> <Idih>
0.000

> <Tether>
0.000

$$$$
VeraChem MOL file


 13 12  0  0  0  0  0  0  0  0999 V2000     
   18.1797   18.1572   21.1944 C   0  0  0  0  0  0  0  0  0  0  0  0
   17.6739   18.6360   20.1993 O   0  5  0  0  0  0  0  0  0  0  0  0
   17.5527   17.5533   22.0415 O   0  0  0  0  0  0  0  0  0  0  0  0
   19.6795   18.3404   21.4007 C   0  0  0  0  0  0  0  0  0  0  0  0
   20.1605   18.3540   20.4151 H   0  0  0  0  0  0  0  0  0  0  0  0
   20.0606   17.4611   21.9343 H   0  0  0  0  0  0  0  0  0  0  0  0
   20.0288   19.6302   22.1818 C   0  0  0  0  0  0  0  0  0  0  0  0
   19.6338   20.5030   21.6433 H   0  0  0  0  0  0  0  0  0  0  0  0
   19.5340   19.6099   23.1629 H   0  0  0  0  0  0  0  0  0  0  0  0
   21.5508   19.7860   22.3734 C   0  0  0  0  0  0  0  0  0  0  0  0
   21.7785   20.7053   22.9287 H   0  0  0  0  0  0  0  0  0  0  0  0
   21.9646   18.9388   22.9360 H   0  0  0  0  0  0  0  0  0  0  0  0
   22.0652   19.8388   21.4048 H   0  0  0  0  0  0  0  0  0  0  0  0
  1  2  1  0  0  0  0
  1  3  2  0  0  0  0
  1  4  1  0  0  0  0
  4  5  1  0  0  0  0
  4  6  1  0  0  0  0
  4  7  1  0  0  0  0
  7  8  1  0  0  0  0
  7  9  1  0  0  0  0
  7 10  1  0  0  0  0
 10 11  1  0  0  0  0
 10 12  1  0  0  0  0
 10 13  1  0  0  0  0
M  END
> <VConfSearch Rank>
526

> <Conf_Id>
1

> <Delta U+W>
-1.339

> <U+W>
-59.672

> <U>
7.389

> <W>
-67.061

> <W(PB)>
-68.767

> <W(SA)>
1.707

> <Valence>
5.822

> <Coulomb>
1.255

> <VdW>
0.312

> <VdW6>
-3.061

> <VdW12>
3.372

> <Bond>
0.059

> <Angle>
2.241

> <Pdih>
3.522

> <Idih>
0.000

> <Tether>
0.000

$$$$
VeraChem MOL file


 13 12  0  0  0  0  0  0  0  0999 V2000     
   19.5227   17.2840   22.1108 C   0  0  0  0  0  0  0  0  0  0  0  0
   19.1835   16.7672   21.0649 O   0  5  0  0  0  0  0  0  0  0  0  0
   20.1259   16.6938   22.9847 O   0  0  0  0  0  0  0  0  0  0  0  0
   19.1381   18.7417   22.3519 C   0  0  0  0  0  0  0  0  0  0  0  0
   19.2222   18.9545   23.4248 H   0  0  0  0  0  0  0  0  0  0  0  0
   18.0785   18.8479   22.0903 H   0  0  0  0  0  0  0  0  0  0  0  0
   19.9749   19.7618   21.5381 C   0  0  0  0  0  0  0  0  0  0  0  0
   19.9172   19.5148   20.4687 H   0  0  0  0  0  0  0  0  0  0  0  0
   19.5361   20.7621   21.6551 H   0  0  0  0  0  0  0  0  0  0  0  0
   21.4511   19.8038   21.9841 C   0  0  0  0  0  0  0  0  0  0  0  0
   21.9352   18.8289   21.8390 H   0  0  0  0  0  0  0  0  0  0  0  0
   22.0099   20.5486   21.4026 H   0  0  0  0  0  0  0  0  0  0  0  0
   21.5328   20.0710   23.0459 H   0  0  0  0  0  0  0  0  0  0  0  0
  1  2  1  0  0  0  0
  1  3  2  0  0  0  0
  1  4  1  0  0  0  0
  4  5  1  0  0  0  0
  4  6  1  0  0  0  0
  4  7  1  0  0  0  0
  7  8  1  0  0  0  0
  7  9  1  0  0  0  0
  7 10  1  0  0  0  0
 10 11  1  0  0  0  0
 10 12  1  0  0  0  0
 10 13  1  0  0  0  0
M  END
> <VConfSearch Rank>
527

> <Conf_Id>
4

> <Delta U+W>
0.281

> <U+W>
-58.051

> <U>
9.781

> <W>
-67.832

> <W(PB)>
-69.535

> <W(SA)>
1.703

> <Valence>
6.123

> <Coulomb>
3.449

> <VdW>
0.209

> <VdW6>
-3.762

> <VdW12>
3.972

> <Bond>
0.078

> <Angle>
2.428

> <Pdih>
3.616

> <Idih>
0.002

> <Tether>
0.000

$$$$
VeraChem MOL file


 13 12  0  0  0  0  0  0  0  0999 V2000     
   18.4217   19.3617   22.4229 C   0  0  0  0  0  0  0  0  0  0  0  0
   17.6819   18.9942   21.5321 O   0  5  0  0  0  0  0  0  0  0  0  0
   18.1377   19.2892   23.6019 O   0  0  0  0  0  0  0  0  0  0  0  0
   19.7644   19.9805   22.0422 C   0  0  0  0  0  0  0  0  0  0  0  0
   19.8707   20.9093   22.6152 H   0  0  0  0  0  0  0  0  0  0  0  0
   19.7331   20.2637   20.9829 H   0  0  0  0  0  0  0  0  0  0  0  0
   20.9852   19.0644   22.3140 C   0  0  0  0  0  0  0  0  0  0  0  0
   21.9083   19.6385   22.1557 H   0  0  0  0  0  0  0  0  0  0  0  0
   20.9838   18.7531   23.3681 H   0  0  0  0  0  0  0  0  0  0  0  0
   21.0036   17.8195   21.4031 C   0  0  0  0  0  0  0  0  0  0  0  0
   21.0276   18.1083   20.3442 H   0  0  0  0  0  0  0  0  0  0  0  0
   21.8892   17.2037   21.6073 H   0  0  0  0  0  0  0  0  0  0  0  0
   20.1139   17.1971   21.5673 H   0  0  0  0  0  0  0  0  0  0  0  0
  1  2  1  0  0  0  0
  1  3  2  0  0  0  0
  1  4  1  0  0  0  0
  4  5  1  0  0  0  0
  4  6  1  0  0  0  0
  4  7  1  0  0  0  0
  7  8  1  0  0  0  0
  7  9  1  0  0  0  0
  7 10  1  0  0  0  0
 10 11  1  0  0  0  0
 10 12  1  0  0  0  0
 10 13  1  0  0  0  0
M  END
> <VConfSearch Rank>
528

> <Conf_Id>
36

> <Delta U+W>
0.272

> <U+W>
-58.060

> <U>
9.781

> <W>
-67.841

> <W(PB)>
-69.537

> <W(SA)>
1.696

> <Valence>
6.123

> <Coulomb>
3.449

> <VdW>
0.209

> <VdW6>
-3.762

> <VdW12>
3.972

> <Bond>
0.078

> <Angle>
2.428

> <Pdih>
3.616

> <Idih>
0.002

> <Tether>
0.000

$$$$
VeraChem MOL file


 13 12  0  0  0  0  0  0  0  0999 V2000     
   21.5843   18.2499   20.5778 C   0  0  0  0  0  0  0  0  0  0  0  0
   20.9503   17.9790   19.5768 O   0  5  0  0  0  0  0  0  0  0  0  0
   22.7823   18.0735   20.6698 O   0  0  0  0  0  0  0  0  0  0  0  0
   20.8693   18.8411   21.7944 C   0  0  0  0  0  0  0  0  0  0  0  0
   21.3498   19.7999   22.0229 H   0  0  0  0  0  0  0  0  0  0  0  0
   21.0629   18.1754   22.6438 H   0  0  0  0  0  0  0  0  0  0  0  0
   19.3409   19.0486   21.6309 C   0  0  0  0  0  0  0  0  0  0  0  0
   19.1489   19.7137   20.7774 H   0  0  0  0  0  0  0  0  0  0  0  0
   18.8617   18.0872   21.3989 H   0  0  0  0  0  0  0  0  0  0  0  0
   18.7080   19.6467   22.9035 C   0  0  0  0  0  0  0  0  0  0  0  0
   19.1490   20.6241   23.1396 H   0  0  0  0  0  0  0  0  0  0  0  0
   17.6274   19.7861   22.7690 H   0  0  0  0  0  0  0  0  0  0  0  0
   18.8595   18.9845   23.7662 H   0  0  0  0  0  0  0  0  0  0  0  0
  1  2  1  0  0  0  0
  1  3  2  0  0  0  0
  1  4  1  0  0  0  0
  4  5  1  0  0  0  0
  4  6  1  0  0  0  0
  4  7  1  0  0  0  0
  7  8  1  0  0  0  0
  7  9  1  0  0  0  0
  7 10  1  0  0  0  0
 10 11  1  0  0  0  0
 10 12  1  0  0  0  0
 10 13  1  0  0  0  0
M  END
> <VConfSearch Rank>
529

> <Conf_Id>
0

> <Delta U+W>
0.000

> <U+W>
-58.332

> <U>
8.390

> <W>
-66.722

> <W(PB)>
-68.455

> <W(SA)>
1.733

> <Valence>
6.333

> <Coulomb>
1.215

> <VdW>
0.842

> <VdW6>
-3.344

> <VdW12>
4.186

> <Bond>
0.091

> <Angle>
2.713

> <Pdih>
3.529

> <Idih>
0.000

> <Tether>
0.000

$$$$
VeraChem MOL file


 13 12  0  0  0  0  0  0  0  0999 V2000     
   20.6002   19.6996   23.7429 C   0  0  0  0  0  0  0  0  0  0  0  0
   20.4459   18.9117   24.6543 O   0  5  0  0  0  0  0  0  0  0  0  0
   20.6584   20.9028   23.8987 O   0  0  0  0  0  0  0  0  0  0  0  0
   20.7079   19.1498   22.3246 C   0  0  0  0  0  0  0  0  0  0  0  0
   21.1949   18.1684   22.3749 H   0  0  0  0  0  0  0  0  0  0  0  0
   21.3702   19.8104   21.7517 H   0  0  0  0  0  0  0  0  0  0  0  0
   19.3361   19.0281   21.6180 C   0  0  0  0  0  0  0  0  0  0  0  0
   18.6782   18.3725   22.2055 H   0  0  0  0  0  0  0  0  0  0  0  0
   18.8535   20.0148   21.5821 H   0  0  0  0  0  0  0  0  0  0  0  0
   19.4790   18.4700   20.1879 C   0  0  0  0  0  0  0  0  0  0  0  0
   18.4969   18.3910   19.7036 H   0  0  0  0  0  0  0  0  0  0  0  0
   20.1091   19.1250   19.5718 H   0  0  0  0  0  0  0  0  0  0  0  0
   19.9324   17.4700   20.2000 H   0  0  0  0  0  0  0  0  0  0  0  0
  1  2  1  0  0  0  0
  1  3  2  0  0  0  0
  1  4  1  0  0  0  0
  4  5  1  0  0  0  0
  4  6  1  0  0  0  0
  4  7  1  0  0  0  0
  7  8  1  0  0  0  0
  7  9  1  0  0  0  0
  7 10  1  0  0  0  0
 10 11  1  0  0  0  0
 10 12  1  0  0  0  0
 10 13  1  0  0  0  0
M  END
> <VConfSearch Rank>
530

> <Conf_Id>
1

> <Delta U+W>
-1.339

> <U+W>
-59.672

> <U>
7.389

> <W>
-67.061

> <W(PB)>
-68.767

> <W(SA)>
1.707

> <Valence>
5.822

> <Coulomb>
1.255

> <VdW>
0.312

> <VdW6>
-3.061

> <VdW12>
3.372

> <Bond>
0.059

> <Angle>
2.241

> <Pdih>
3.522

> <Idih>
0.000

> <Tether>
0.000

$$$$
VeraChem MOL file


 13 12  0  0  0  0  0  0  0  0999 V2000     
   21.7955   19.3005   22.5539 C   0  0  0  0  0  0  0  0  0  0  0  0
   22.5795   18.3761   22.4710 O   0  5  0  0  0  0  0  0  0  0  0  0
   22.0881   20.4517   22.2987 O   0  0  0  0  0  0  0  0  0  0  0  0
   20.3790   19.0023   23.0391 C   0  0  0  0  0  0  0  0  0  0  0  0
   19.9127   19.9416   23.3610 H   0  0  0  0  0  0  0  0  0  0  0  0
   20.4651   18.3698   23.9306 H   0  0  0  0  0  0  0  0  0  0  0  0
   19.4845   18.2946   21.9892 C   0  0  0  0  0  0  0  0  0  0  0  0
   19.9797   17.3765   21.6431 H   0  0  0  0  0  0  0  0  0  0  0  0
   18.5448   17.9854   22.4669 H   0  0  0  0  0  0  0  0  0  0  0  0
   19.1621   19.1994   20.7821 C   0  0  0  0  0  0  0  0  0  0  0  0
   20.0785   19.4925   20.2527 H   0  0  0  0  0  0  0  0  0  0  0  0
   18.5123   18.6759   20.0688 H   0  0  0  0  0  0  0  0  0  0  0  0
   18.6463   20.1137   21.1037 H   0  0  0  0  0  0  0  0  0  0  0  0
  1  2  1  0  0  0  0
  1  3  2  0  0  0  0
  1  4  1  0  0  0  0
  4  5  1  0  0  0  0
  4  6  1  0  0  0  0
  4  7  1  0  0  0  0
  7  8  1  0  0  0  0
  7  9  1  0  0  0  0
  7 10  1  0  0  0  0
 10 11  1  0  0  0  0
 10 12  1  0  0  0  0
 10 13  1  0  0  0  0
M  END
> <VConfSearch Rank>
531

> <Conf_Id>
4

> <Delta U+W>
0.281

> <U+W>
-58.051

> <U>
9.781

> <W>
-67.832

> <W(PB)>
-69.535

> <W(SA)>
1.703

> <Valence>
6.123

> <Coulomb>
3.449

> <VdW>
0.209

> <VdW6>
-3.762

> <VdW12>
3.972

> <Bond>
0.078

> <Angle>
2.428

> <Pdih>
3.616

> <Idih>
0.002

> <Tether>
0.000

$$$$
VeraChem MOL file


 13 12  0  0  0  0  0  0  0  0999 V2000     
   21.8534   19.3072   22.2808 C   0  0  0  0  0  0  0  0  0  0  0  0
   21.9660   20.1829   23.1153 O   0  5  0  0  0  0  0  0  0  0  0  0
   22.6023   18.3535   22.2057 O   0  0  0  0  0  0  0  0  0  0  0  0
   20.7346   19.4275   21.2491 C   0  0  0  0  0  0  0  0  0  0  0  0
   21.1786   19.2478   20.2627 H   0  0  0  0  0  0  0  0  0  0  0  0
   20.3676   20.4613   21.2475 H   0  0  0  0  0  0  0  0  0  0  0  0
   19.5575   18.4435   21.4716 C   0  0  0  0  0  0  0  0  0  0  0  0
   18.8790   18.4930   20.6090 H   0  0  0  0  0  0  0  0  0  0  0  0
   19.9413   17.4145   21.5129 H   0  0  0  0  0  0  0  0  0  0  0  0
   18.7625   18.7550   22.7565 C   0  0  0  0  0  0  0  0  0  0  0  0
   18.3508   19.7723   22.7264 H   0  0  0  0  0  0  0  0  0  0  0  0
   17.9262   18.0535   22.8736 H   0  0  0  0  0  0  0  0  0  0  0  0
   19.4012   18.6712   23.6459 H   0  0  0  0  0  0  0  0  0  0  0  0
  1  2  1  0  0  0  0
  1  3  2  0  0  0  0
  1  4  1  0  0  0  0
  4  5  1  0  0  0  0
  4  6  1  0  0  0  0
  4  7  1  0  0  0  0
  7  8  1  0  0  0  0
  7  9  1  0  0  0  0
  7 10  1  0  0  0  0
 10 11  1  0  0  0  0
 10 12  1  0  0  0  0
 10 13  1  0  0  0  0
M  END
> <VConfSearch Rank>
532

> <Conf_Id>
36

> <Delta U+W>
0.272

> <U+W>
-58.060

> <U>
9.781

> <W>
-67.841

> <W(PB)>
-69.537

> <W(SA)>
1.696

> <Valence>
6.123

> <Coulomb>
3.449

> <VdW>
0.209

> <VdW6>
-3.762

> <VdW12>
3.972

> <Bond>
0.078

> <Angle>
2.428

> <Pdih>
3.616

> <Idih>
0.002

> <Tether>
0.000

$$$$
VeraChem MOL file


 13 12  0  0  0  0  0  0  0  0999 V2000     
   19.6797   19.2843   23.9064 C   0  0  0  0  0  0  0  0  0  0  0  0
   18.6113   19.8628   23.8714 O   0  5  0  0  0  0  0  0  0  0  0  0
   20.2552   19.0203   24.9427 O   0  0  0  0  0  0  0  0  0  0  0  0
   20.3560   18.8563   22.6026 C   0  0  0  0  0  0  0  0  0  0  0  0
   20.5094   17.7717   22.6536 H   0  0  0  0  0  0  0  0  0  0  0  0
   21.3496   19.3196   22.5813 H   0  0  0  0  0  0  0  0  0  0  0  0
   19.5847   19.2143   21.3053 C   0  0  0  0  0  0  0  0  0  0  0  0
   18.5883   18.7514   21.3299 H   0  0  0  0  0  0  0  0  0  0  0  0
   19.4294   20.3012   21.2575 H   0  0  0  0  0  0  0  0  0  0  0  0
   20.3405   18.7453   20.0456 C   0  0  0  0  0  0  0  0  0  0  0  0
   20.4812   17.6565   20.0544 H   0  0  0  0  0  0  0  0  0  0  0  0
   19.7800   19.0072   19.1387 H   0  0  0  0  0  0  0  0  0  0  0  0
   21.3291   19.2186   19.9816 H   0  0  0  0  0  0  0  0  0  0  0  0
  1  2  1  0  0  0  0
  1  3  2  0  0  0  0
  1  4  1  0  0  0  0
  4  5  1  0  0  0  0
  4  6  1  0  0  0  0
  4  7  1  0  0  0  0
  7  8  1  0  0  0  0
  7  9  1  0  0  0  0
  7 10  1  0  0  0  0
 10 11  1  0  0  0  0
 10 12  1  0  0  0  0
 10 13  1  0  0  0  0
M  END
> <VConfSearch Rank>
533

> <Conf_Id>
0

> <Delta U+W>
0.000

> <U+W>
-58.332

> <U>
8.390

> <W>
-66.722

> <W(PB)>
-68.455

> <W(SA)>
1.733

> <Valence>
6.333

> <Coulomb>
1.215

> <VdW>
0.842

> <VdW6>
-3.344

> <VdW12>
4.186

> <Bond>
0.091

> <Angle>
2.713

> <Pdih>
3.529

> <Idih>
0.000

> <Tether>
0.000

$$$$
VeraChem MOL file


 13 12  0  0  0  0  0  0  0  0999 V2000     
   19.1562   20.4408   20.4895 C   0  0  0  0  0  0  0  0  0  0  0  0
   18.6979   21.4496   20.9871 O   0  5  0  0  0  0  0  0  0  0  0  0
   18.8030   20.0036   19.4126 O   0  0  0  0  0  0  0  0  0  0  0  0
   20.2187   19.6714   21.2670 C   0  0  0  0  0  0  0  0  0  0  0  0
   20.8101   20.3935   21.8430 H   0  0  0  0  0  0  0  0  0  0  0  0
   20.8969   19.2011   20.5446 H   0  0  0  0  0  0  0  0  0  0  0  0
   19.6198   18.6004   22.2105 C   0  0  0  0  0  0  0  0  0  0  0  0
   18.9349   19.0813   22.9230 H   0  0  0  0  0  0  0  0  0  0  0  0
   19.0218   17.8887   21.6243 H   0  0  0  0  0  0  0  0  0  0  0  0
   20.7184   17.8412   22.9813 C   0  0  0  0  0  0  0  0  0  0  0  0
   20.2747   17.0870   23.6442 H   0  0  0  0  0  0  0  0  0  0  0  0
   21.3990   17.3268   22.2901 H   0  0  0  0  0  0  0  0  0  0  0  0
   21.3114   18.5286   23.5988 H   0  0  0  0  0  0  0  0  0  0  0  0
  1  2  1  0  0  0  0
  1  3  2  0  0  0  0
  1  4  1  0  0  0  0
  4  5  1  0  0  0  0
  4  6  1  0  0  0  0
  4  7  1  0  0  0  0
  7  8  1  0  0  0  0
  7  9  1  0  0  0  0
  7 10  1  0  0  0  0
 10 11  1  0  0  0  0
 10 12  1  0  0  0  0
 10 13  1  0  0  0  0
M  END
> <VConfSearch Rank>
534

> <Conf_Id>
1

> <Delta U+W>
-1.339

> <U+W>
-59.672

> <U>
7.389

> <W>
-67.061

> <W(PB)>
-68.767

> <W(SA)>
1.707

> <Valence>
5.822

> <Coulomb>
1.255

> <VdW>
0.312

> <VdW6>
-3.061

> <VdW12>
3.372

> <Bond>
0.059

> <Angle>
2.241

> <Pdih>
3.522

> <Idih>
0.000

> <Tether>
0.000

$$$$
VeraChem MOL file


 13 12  0  0  0  0  0  0  0  0999 V2000     
   20.8033   17.5498   21.1363 C   0  0  0  0  0  0  0  0  0  0  0  0
   21.8209   17.0787   21.6039 O   0  5  0  0  0  0  0  0  0  0  0  0
   19.8984   16.8755   20.6864 O   0  0  0  0  0  0  0  0  0  0  0  0
   20.6730   19.0699   21.0799 C   0  0  0  0  0  0  0  0  0  0  0  0
   19.8826   19.3285   20.3645 H   0  0  0  0  0  0  0  0  0  0  0  0
   21.6112   19.4635   20.6711 H   0  0  0  0  0  0  0  0  0  0  0  0
   20.3895   19.7340   22.4517 C   0  0  0  0  0  0  0  0  0  0  0  0
   21.1641   19.4353   23.1719 H   0  0  0  0  0  0  0  0  0  0  0  0
   20.4615   20.8250   22.3451 H   0  0  0  0  0  0  0  0  0  0  0  0
   18.9958   19.3727   23.0058 C   0  0  0  0  0  0  0  0  0  0  0  0
   18.9036   18.2904   23.1671 H   0  0  0  0  0  0  0  0  0  0  0  0
   18.8196   19.8738   23.9664 H   0  0  0  0  0  0  0  0  0  0  0  0
   18.2046   19.6829   22.3107 H   0  0  0  0  0  0  0  0  0  0  0  0
  1  2  1  0  0  0  0
  1  3  2  0  0  0  0
  1  4  1  0  0  0  0
  4  5  1  0  0  0  0
  4  6  1  0  0  0  0
  4  7  1  0  0  0  0
  7  8  1  0  0  0  0
  7  9  1  0  0  0  0
  7 10  1  0  0  0  0
 10 11  1  0  0  0  0
 10 12  1  0  0  0  0
 10 13  1  0  0  0  0
M  END
> <VConfSearch Rank>
535

> <Conf_Id>
4

> <Delta U+W>
0.281

> <U+W>
-58.051

> <U>
9.781

> <W>
-67.832

> <W(PB)>
-69.535

> <W(SA)>
1.703

> <Valence>
6.123

> <Coulomb>
3.449

> <VdW>
0.209

> <VdW6>
-3.762

> <VdW12>
3.972

> <Bond>
0.078

> <Angle>
2.428

> <Pdih>
3.616

> <Idih>
0.002

> <Tether>
0.000

$$$$
VeraChem MOL file


 13 12  0  0  0  0  0  0  0  0999 V2000     
   19.2457   19.9257   20.7580 C   0  0  0  0  0  0  0  0  0  0  0  0
   19.6772   19.6541   19.6553 O   0  5  0  0  0  0  0  0  0  0  0  0
   18.0721   20.1457   20.9823 O   0  0  0  0  0  0  0  0  0  0  0  0
   20.2329   20.0318   21.9177 C   0  0  0  0  0  0  0  0  0  0  0  0
   20.0168   20.9679   22.4464 H   0  0  0  0  0  0  0  0  0  0  0  0
   21.2465   20.1257   21.5089 H   0  0  0  0  0  0  0  0  0  0  0  0
   20.1677   18.8484   22.9170 C   0  0  0  0  0  0  0  0  0  0  0  0
   20.7954   19.0785   23.7887 H   0  0  0  0  0  0  0  0  0  0  0  0
   19.1395   18.7373   23.2888 H   0  0  0  0  0  0  0  0  0  0  0  0
   20.6418   17.5204   22.2911 C   0  0  0  0  0  0  0  0  0  0  0  0
   21.6762   17.6028   21.9326 H   0  0  0  0  0  0  0  0  0  0  0  0
   20.6018   16.7089   23.0293 H   0  0  0  0  0  0  0  0  0  0  0  0
   20.0073   17.2360   21.4412 H   0  0  0  0  0  0  0  0  0  0  0  0
  1  2  1  0  0  0  0
  1  3  2  0  0  0  0
  1  4  1  0  0  0  0
  4  5  1  0  0  0  0
  4  6  1  0  0  0  0
  4  7  1  0  0  0  0
  7  8  1  0  0  0  0
  7  9  1  0  0  0  0
  7 10  1  0  0  0  0
 10 11  1  0  0  0  0
 10 12  1  0  0  0  0
 10 13  1  0  0  0  0
M  END
> <VConfSearch Rank>
536

> <Conf_Id>
36

> <Delta U+W>
0.272

> <U+W>
-58.060

> <U>
9.781

> <W>
-67.841

> <W(PB)>
-69.537

> <W(SA)>
1.696

> <Valence>
6.123

> <Coulomb>
3.449

> <VdW>
0.209

> <VdW6>
-3.762

> <VdW12>
3.972

> <Bond>
0.078

> <Angle>
2.428

> <Pdih>
3.616

> <Idih>
0.002

> <Tether>
0.000

$$$$
VeraChem MOL file


 13 12  0  0  0  0  0  0  0  0999 V2000     
   21.9237   19.1535   20.8667 C   0  0  0  0  0  0  0  0  0  0  0  0
   21.9648   18.0804   20.2974 O   0  5  0  0  0  0  0  0  0  0  0  0
   22.8177   19.9726   20.7993 O   0  0  0  0  0  0  0  0  0  0  0  0
   20.7038   19.5183   21.7150 C   0  0  0  0  0  0  0  0  0  0  0  0
   20.2947   20.4538   21.3153 H   0  0  0  0  0  0  0  0  0  0  0  0
   21.0620   19.7328   22.7289 H   0  0  0  0  0  0  0  0  0  0  0  0
   19.5881   18.4422   21.7718 C   0  0  0  0  0  0  0  0  0  0  0  0
   19.2326   18.2266   20.7545 H   0  0  0  0  0  0  0  0  0  0  0  0
   20.0009   17.5047   22.1698 H   0  0  0  0  0  0  0  0  0  0  0  0
   18.4027   18.8966   22.6471 C   0  0  0  0  0  0  0  0  0  0  0  0
   17.9523   19.8165   22.2517 H   0  0  0  0  0  0  0  0  0  0  0  0
   17.6242   18.1230   22.6752 H   0  0  0  0  0  0  0  0  0  0  0  0
   18.7268   19.0889   23.6784 H   0  0  0  0  0  0  0  0  0  0  0  0
  1  2  1  0  0  0  0
  1  3  2  0  0  0  0
  1  4  1  0  0  0  0
  4  5  1  0  0  0  0
  4  6  1  0  0  0  0
  4  7  1  0  0  0  0
  7  8  1  0  0  0  0
  7  9  1  0  0  0  0
  7 10  1  0  0  0  0
 10 11  1  0  0  0  0
 10 12  1  0  0  0  0
 10 13  1  0  0  0  0
M  END
> <VConfSearch Rank>
537

> <Conf_Id>
0

> <Delta U+W>
0.000

> <U+W>
-58.332

> <U>
8.390

> <W>
-66.722

> <W(PB)>
-68.455

> <W(SA)>
1.733

> <Valence>
6.333

> <Coulomb>
1.215

> <VdW>
0.842

> <VdW6>
-3.344

> <VdW12>
4.186

> <Bond>
0.091

> <Angle>
2.713

> <Pdih>
3.529

> <Idih>
0.000

> <Tether>
0.000

$$$$
VeraChem MOL file


 13 12  0  0  0  0  0  0  0  0999 V2000     
   17.8984   18.7618   21.7297 C   0  0  0  0  0  0  0  0  0  0  0  0
   17.4636   17.7720   22.2836 O   0  5  0  0  0  0  0  0  0  0  0  0
   17.3293   19.3235   20.8154 O   0  0  0  0  0  0  0  0  0  0  0  0
   19.2399   19.3180   22.1948 C   0  0  0  0  0  0  0  0  0  0  0  0
   19.3342   19.1269   23.2707 H   0  0  0  0  0  0  0  0  0  0  0  0
   19.2235   20.4064   22.0600 H   0  0  0  0  0  0  0  0  0  0  0  0
   20.4431   18.7057   21.4376 C   0  0  0  0  0  0  0  0  0  0  0  0
   20.4436   17.6149   21.5716 H   0  0  0  0  0  0  0  0  0  0  0  0
   20.3329   18.8947   20.3606 H   0  0  0  0  0  0  0  0  0  0  0  0
   21.7830   19.2879   21.9305 C   0  0  0  0  0  0  0  0  0  0  0  0
   22.6233   18.8421   21.3825 H   0  0  0  0  0  0  0  0  0  0  0  0
   21.8182   20.3749   21.7794 H   0  0  0  0  0  0  0  0  0  0  0  0
   21.9297   19.0852   22.9996 H   0  0  0  0  0  0  0  0  0  0  0  0
  1  2  1  0  0  0  0
  1  3  2  0  0  0  0
  1  4  1  0  0  0  0
  4  5  1  0  0  0  0
  4  6  1  0  0  0  0
  4  7  1  0  0  0  0
  7  8  1  0  0  0  0
  7  9  1  0  0  0  0
  7 10  1  0  0  0  0
 10 11  1  0  0  0  0
 10 12  1  0  0  0  0
 10 13  1  0  0  0  0
M  END
> <VConfSearch Rank>
538

> <Conf_Id>
1

> <Delta U+W>
-1.339

> <U+W>
-59.672

> <U>
7.389

> <W>
-67.061

> <W(PB)>
-68.767

> <W(SA)>
1.707

> <Valence>
5.822

> <Coulomb>
1.255

> <VdW>
0.312

> <VdW6>
-3.061

> <VdW12>
3.372

> <Bond>
0.059

> <Angle>
2.241

> <Pdih>
3.522

> <Idih>
0.000

> <Tether>
0.000

$$$$
VeraChem MOL file


 13 12  0  0  0  0  0  0  0  0999 V2000     
   20.0259   18.1670   20.3971 C   0  0  0  0  0  0  0  0  0  0  0  0
   19.3756   18.7466   19.5501 O   0  5  0  0  0  0  0  0  0  0  0  0
   21.0711   17.5938   20.1629 O   0  0  0  0  0  0  0  0  0  0  0  0
   19.4803   18.1279   21.8224 C   0  0  0  0  0  0  0  0  0  0  0  0
   19.9889   17.3260   22.3715 H   0  0  0  0  0  0  0  0  0  0  0  0
   18.4222   17.8473   21.7600 H   0  0  0  0  0  0  0  0  0  0  0  0
   19.6138   19.4683   22.5899 C   0  0  0  0  0  0  0  0  0  0  0  0
   19.1371   20.2722   22.0116 H   0  0  0  0  0  0  0  0  0  0  0  0
   19.0662   19.3953   23.5395 H   0  0  0  0  0  0  0  0  0  0  0  0
   21.0828   19.8374   22.8824 C   0  0  0  0  0  0  0  0  0  0  0  0
   21.6513   19.9624   21.9513 H   0  0  0  0  0  0  0  0  0  0  0  0
   21.1407   20.7795   23.4429 H   0  0  0  0  0  0  0  0  0  0  0  0
   21.5723   19.0565   23.4792 H   0  0  0  0  0  0  0  0  0  0  0  0
  1  2  1  0  0  0  0
  1  3  2  0  0  0  0
  1  4  1  0  0  0  0
  4  5  1  0  0  0  0
  4  6  1  0  0  0  0
  4  7  1  0  0  0  0
  7  8  1  0  0  0  0
  7  9  1  0  0  0  0
  7 10  1  0  0  0  0
 10 11  1  0  0  0  0
 10 12  1  0  0  0  0
 10 13  1  0  0  0  0
M  END
> <VConfSearch Rank>
539

> <Conf_Id>
4

> <Delta U+W>
0.281

> <U+W>
-58.051

> <U>
9.781

> <W>
-67.832

> <W(PB)>
-69.535

> <W(SA)>
1.703

> <Valence>
6.123

> <Coulomb>
3.449

> <VdW>
0.209

> <VdW6>
-3.762

> <VdW12>
3.972

> <Bond>
0.078

> <Angle>
2.428

> <Pdih>
3.616

> <Idih>
0.002

> <Tether>
0.000

$$$$
VeraChem MOL file


 13 12  0  0  0  0  0  0  0  0999 V2000     
   18.9993   18.0997   23.0956 C   0  0  0  0  0  0  0  0  0  0  0  0
   18.4362   17.2124   22.4861 O   0  5  0  0  0  0  0  0  0  0  0  0
   19.3625   17.9929   24.2501 O   0  0  0  0  0  0  0  0  0  0  0  0
   19.2320   19.4321   22.3876 C   0  0  0  0  0  0  0  0  0  0  0  0
   18.8985   20.2259   23.0667 H   0  0  0  0  0  0  0  0  0  0  0  0
   18.5838   19.4783   21.5039 H   0  0  0  0  0  0  0  0  0  0  0  0
   20.7065   19.6863   21.9821 C   0  0  0  0  0  0  0  0  0  0  0  0
   20.8076   20.7189   21.6209 H   0  0  0  0  0  0  0  0  0  0  0  0
   21.3519   19.5968   22.8672 H   0  0  0  0  0  0  0  0  0  0  0  0
   21.1919   18.7183   20.8833 C   0  0  0  0  0  0  0  0  0  0  0  0
   20.5734   18.8075   19.9806 H   0  0  0  0  0  0  0  0  0  0  0  0
   22.2311   18.9377   20.6060 H   0  0  0  0  0  0  0  0  0  0  0  0
   21.1463   17.6764   21.2270 H   0  0  0  0  0  0  0  0  0  0  0  0
  1  2  1  0  0  0  0
  1  3  2  0  0  0  0
  1  4  1  0  0  0  0
  4  5  1  0  0  0  0
  4  6  1  0  0  0  0
  4  7  1  0  0  0  0
  7  8  1  0  0  0  0
  7  9  1  0  0  0  0
  7 10  1  0  0  0  0
 10 11  1  0  0  0  0
 10 12  1  0  0  0  0
 10 13  1  0  0  0  0
M  END
> <VConfSearch Rank>
540

> <Conf_Id>
36

> <Delta U+W>
0.272

> <U+W>
-58.060

> <U>
9.781

> <W>
-67.841

> <W(PB)>
-69.537

> <W(SA)>
1.696

> <Valence>
6.123

> <Coulomb>
3.449

> <VdW>
0.209

> <VdW6>
-3.762

> <VdW12>
3.972

> <Bond>
0.078

> <Angle>
2.428

> <Pdih>
3.616

> <Idih>
0.002

> <Tether>
0.000

$$$$
VeraChem MOL file


 13 12  0  0  0  0  0  0  0  0999 V2000     
   19.1046   17.0771   21.8873 C   0  0  0  0  0  0  0  0  0  0  0  0
   19.3712   16.6736   20.7722 O   0  5  0  0  0  0  0  0  0  0  0  0
   18.4739   16.4239   22.6938 O   0  0  0  0  0  0  0  0  0  0  0  0
   19.5705   18.4672   22.3247 C   0  0  0  0  0  0  0  0  0  0  0  0
   20.1794   18.3396   23.2277 H   0  0  0  0  0  0  0  0  0  0  0  0
   18.6790   19.0346   22.6172 H   0  0  0  0  0  0  0  0  0  0  0  0
   20.3719   19.2642   21.2625 C   0  0  0  0  0  0  0  0  0  0  0  0
   21.2633   18.6925   20.9686 H   0  0  0  0  0  0  0  0  0  0  0  0
   19.7611   19.3883   20.3573 H   0  0  0  0  0  0  0  0  0  0  0  0
   20.7980   20.6487   21.7911 C   0  0  0  0  0  0  0  0  0  0  0  0
   21.4363   20.5508   22.6792 H   0  0  0  0  0  0  0  0  0  0  0  0
   21.3632   21.1972   21.0264 H   0  0  0  0  0  0  0  0  0  0  0  0
   19.9219   21.2521   22.0630 H   0  0  0  0  0  0  0  0  0  0  0  0
  1  2  1  0  0  0  0
  1  3  2  0  0  0  0
  1  4  1  0  0  0  0
  4  5  1  0  0  0  0
  4  6  1  0  0  0  0
  4  7  1  0  0  0  0
  7  8  1  0  0  0  0
  7  9  1  0  0  0  0
  7 10  1  0  0  0  0
 10 11  1  0  0  0  0
 10 12  1  0  0  0  0
 10 13  1  0  0  0  0
M  END
> <VConfSearch Rank>
541

> <Conf_Id>
0

> <Delta U+W>
0.000

> <U+W>
-58.332

> <U>
8.390

> <W>
-66.722

> <W(PB)>
-68.455

> <W(SA)>
1.733

> <Valence>
6.333

> <Coulomb>
1.215

> <VdW>
0.842

> <VdW6>
-3.344

> <VdW12>
4.186

> <Bond>
0.091

> <Angle>
2.713

> <Pdih>
3.529

> <Idih>
0.000

> <Tether>
0.000

$$$$
VeraChem MOL file


 13 12  0  0  0  0  0  0  0  0999 V2000     
   20.6412   18.7078   23.8133 C   0  0  0  0  0  0  0  0  0  0  0  0
   20.3506   17.6326   24.2978 O   0  5  0  0  0  0  0  0  0  0  0  0
   20.8702   19.7014   24.4733 O   0  0  0  0  0  0  0  0  0  0  0  0
   20.7036   18.8210   22.2938 C   0  0  0  0  0  0  0  0  0  0  0  0
   21.0409   17.8573   21.8932 H   0  0  0  0  0  0  0  0  0  0  0  0
   21.4694   19.5634   22.0379 H   0  0  0  0  0  0  0  0  0  0  0  0
   19.3470   19.2154   21.6612 C   0  0  0  0  0  0  0  0  0  0  0  0
   18.5859   18.4705   21.9322 H   0  0  0  0  0  0  0  0  0  0  0  0
   19.0145   20.1769   22.0769 H   0  0  0  0  0  0  0  0  0  0  0  0
   19.4434   19.3214   20.1260 C   0  0  0  0  0  0  0  0  0  0  0  0
   18.4728   19.6016   19.6961 H   0  0  0  0  0  0  0  0  0  0  0  0
   20.1776   20.0822   19.8301 H   0  0  0  0  0  0  0  0  0  0  0  0
   19.7456   18.3626   19.6843 H   0  0  0  0  0  0  0  0  0  0  0  0
  1  2  1  0  0  0  0
  1  3  2  0  0  0  0
  1  4  1  0  0  0  0
  4  5  1  0  0  0  0
  4  6  1  0  0  0  0
  4  7  1  0  0  0  0
  7  8  1  0  0  0  0
  7  9  1  0  0  0  0
  7 10  1  0  0  0  0
 10 11  1  0  0  0  0
 10 12  1  0  0  0  0
 10 13  1  0  0  0  0
M  END
> <VConfSearch Rank>
542

> <Conf_Id>
1

> <Delta U+W>
-1.339

> <U+W>
-59.672

> <U>
7.389

> <W>
-67.061

> <W(PB)>
-68.767

> <W(SA)>
1.707

> <Valence>
5.822

> <Coulomb>
1.255

> <VdW>
0.312

> <VdW6>
-3.061

> <VdW12>
3.372

> <Bond>
0.059

> <Angle>
2.241

> <Pdih>
3.522

> <Idih>
0.000

> <Tether>
0.000

$$$$
VeraChem MOL file


 13 12  0  0  0  0  0  0  0  0999 V2000     
   20.9710   20.3848   21.2989 C   0  0  0  0  0  0  0  0  0  0  0  0
   20.2714   21.3366   21.0147 O   0  5  0  0  0  0  0  0  0  0  0  0
   22.0725   20.4895   21.8004 O   0  0  0  0  0  0  0  0  0  0  0  0
   20.4510   18.9865   20.9747 C   0  0  0  0  0  0  0  0  0  0  0  0
   21.2952   18.2861   20.9866 H   0  0  0  0  0  0  0  0  0  0  0  0
   20.0727   19.0087   19.9457 H   0  0  0  0  0  0  0  0  0  0  0  0
   19.3316   18.4895   21.9250 C   0  0  0  0  0  0  0  0  0  0  0  0
   18.5091   19.2184   21.9373 H   0  0  0  0  0  0  0  0  0  0  0  0
   18.9161   17.5515   21.5322 H   0  0  0  0  0  0  0  0  0  0  0  0
   19.8393   18.2527   23.3624 C   0  0  0  0  0  0  0  0  0  0  0  0
   20.2224   19.1824   23.8038 H   0  0  0  0  0  0  0  0  0  0  0  0
   19.0282   17.8833   24.0033 H   0  0  0  0  0  0  0  0  0  0  0  0
   20.6478   17.5100   23.3757 H   0  0  0  0  0  0  0  0  0  0  0  0
  1  2  1  0  0  0  0
  1  3  2  0  0  0  0
  1  4  1  0  0  0  0
  4  5  1  0  0  0  0
  4  6  1  0  0  0  0
  4  7  1  0  0  0  0
  7  8  1  0  0  0  0
  7  9  1  0  0  0  0
  7 10  1  0  0  0  0
 10 11  1  0  0  0  0
 10 12  1  0  0  0  0
 10 13  1  0  0  0  0
M  END
> <VConfSearch Rank>
543

> <Conf_Id>
4

> <Delta U+W>
0.281

> <U+W>
-58.051

> <U>
9.781

> <W>
-67.832

> <W(PB)>
-69.535

> <W(SA)>
1.703

> <Valence>
6.123

> <Coulomb>
3.449

> <VdW>
0.209

> <VdW6>
-3.762

> <VdW12>
3.972

> <Bond>
0.078

> <Angle>
2.428

> <Pdih>
3.616

> <Idih>
0.002

> <Tether>
0.000

$$$$
VeraChem MOL file


 13 12  0  0  0  0  0  0  0  0999 V2000     
   19.2855   20.3929   21.2975 C   0  0  0  0  0  0  0  0  0  0  0  0
   20.1063   21.1466   20.8135 O   0  5  0  0  0  0  0  0  0  0  0  0
   18.1947   20.1851   20.8047 O   0  0  0  0  0  0  0  0  0  0  0  0
   19.6262   19.6967   22.6128 C   0  0  0  0  0  0  0  0  0  0  0  0
   18.7685   19.8269   23.2834 H   0  0  0  0  0  0  0  0  0  0  0  0
   20.4729   20.2172   23.0769 H   0  0  0  0  0  0  0  0  0  0  0  0
   19.9426   18.1860   22.4678 C   0  0  0  0  0  0  0  0  0  0  0  0
   20.0259   17.7382   23.4675 H   0  0  0  0  0  0  0  0  0  0  0  0
   19.1057   17.6817   21.9647 H   0  0  0  0  0  0  0  0  0  0  0  0
   21.2497   17.9286   21.6898 C   0  0  0  0  0  0  0  0  0  0  0  0
   22.1035   18.4060   22.1882 H   0  0  0  0  0  0  0  0  0  0  0  0
   21.4541   16.8522   21.6224 H   0  0  0  0  0  0  0  0  0  0  0  0
   21.1853   18.3252   20.6678 H   0  0  0  0  0  0  0  0  0  0  0  0
  1  2  1  0  0  0  0
  1  3  2  0  0  0  0
  1  4  1  0  0  0  0
  4  5  1  0  0  0  0
  4  6  1  0  0  0  0
  4  7  1  0  0  0  0
  7  8  1  0  0  0  0
  7  9  1  0  0  0  0
  7 10  1  0  0  0  0
 10 11  1  0  0  0  0
 10 12  1  0  0  0  0
 10 13  1  0  0  0  0
M  END
> <VConfSearch Rank>
544

> <Conf_Id>
36

> <Delta U+W>
0.272

> <U+W>
-58.060

> <U>
9.781

> <W>
-67.841

> <W(PB)>
-69.537

> <W(SA)>
1.696

> <Valence>
6.123

> <Coulomb>
3.449

> <VdW>
0.209

> <VdW6>
-3.762

> <VdW12>
3.972

> <Bond>
0.078

> <Angle>
2.428

> <Pdih>
3.616

> <Idih>
0.002

> <Tether>
0.000

$$$$
VeraChem MOL file


 13 12  0  0  0  0  0  0  0  0999 V2000     
   20.3732   17.4523   20.3972 C   0  0  0  0  0  0  0  0  0  0  0  0
   19.8718   17.9518   19.4090 O   0  5  0  0  0  0  0  0  0  0  0  0
   20.8913   16.3539   20.3925 O   0  0  0  0  0  0  0  0  0  0  0  0
   20.3671   18.2167   21.7224 C   0  0  0  0  0  0  0  0  0  0  0  0
   21.4095   18.3178   22.0473 H   0  0  0  0  0  0  0  0  0  0  0  0
   19.8608   17.5855   22.4625 H   0  0  0  0  0  0  0  0  0  0  0  0
   19.6950   19.6140   21.6804 C   0  0  0  0  0  0  0  0  0  0  0  0
   20.2019   20.2440   20.9361 H   0  0  0  0  0  0  0  0  0  0  0  0
   18.6514   19.5108   21.3517 H   0  0  0  0  0  0  0  0  0  0  0  0
   19.7362   20.3074   23.0571 C   0  0  0  0  0  0  0  0  0  0  0  0
   20.7713   20.4505   23.3942 H   0  0  0  0  0  0  0  0  0  0  0  0
   19.2565   21.2937   23.0076 H   0  0  0  0  0  0  0  0  0  0  0  0
   19.2084   19.7113   23.8132 H   0  0  0  0  0  0  0  0  0  0  0  0
  1  2  1  0  0  0  0
  1  3  2  0  0  0  0
  1  4  1  0  0  0  0
  4  5  1  0  0  0  0
  4  6  1  0  0  0  0
  4  7  1  0  0  0  0
  7  8  1  0  0  0  0
  7  9  1  0  0  0  0
  7 10  1  0  0  0  0
 10 11  1  0  0  0  0
 10 12  1  0  0  0  0
 10 13  1  0  0  0  0
M  END
> <VConfSearch Rank>
545

> <Conf_Id>
0

> <Delta U+W>
0.000

> <U+W>
-58.332

> <U>
8.390

> <W>
-66.722

> <W(PB)>
-68.455

> <W(SA)>
1.733

> <Valence>
6.333

> <Coulomb>
1.215

> <VdW>
0.842

> <VdW6>
-3.344

> <VdW12>
4.186

> <Bond>
0.091

> <Angle>
2.713

> <Pdih>
3.529

> <Idih>
0.000

> <Tether>
0.000

$$$$
VeraChem MOL file


 13 12  0  0  0  0  0  0  0  0999 V2000     
   18.2327   20.1657   21.5065 C   0  0  0  0  0  0  0  0  0  0  0  0
   18.3574   21.1650   20.8274 O   0  5  0  0  0  0  0  0  0  0  0  0
   17.3428   20.0133   22.3190 O   0  0  0  0  0  0  0  0  0  0  0  0
   19.2597   19.0502   21.3438 C   0  0  0  0  0  0  0  0  0  0  0  0
   19.5933   19.0430   20.2990 H   0  0  0  0  0  0  0  0  0  0  0  0
   18.7566   18.0933   21.5291 H   0  0  0  0  0  0  0  0  0  0  0  0
   20.4749   19.2050   22.2900 C   0  0  0  0  0  0  0  0  0  0  0  0
   20.9647   20.1707   22.1024 H   0  0  0  0  0  0  0  0  0  0  0  0
   20.1278   19.2207   23.3327 H   0  0  0  0  0  0  0  0  0  0  0  0
   21.4935   18.0631   22.1011 C   0  0  0  0  0  0  0  0  0  0  0  0
   22.3470   18.1901   22.7798 H   0  0  0  0  0  0  0  0  0  0  0  0
   21.0345   17.0883   22.3125 H   0  0  0  0  0  0  0  0  0  0  0  0
   21.8778   18.0457   21.0727 H   0  0  0  0  0  0  0  0  0  0  0  0
  1  2  1  0  0  0  0
  1  3  2  0  0  0  0
  1  4  1  0  0  0  0
  4  5  1  0  0  0  0
  4  6  1  0  0  0  0
  4  7  1  0  0  0  0
  7  8  1  0  0  0  0
  7  9  1  0  0  0  0
  7 10  1  0  0  0  0
 10 11  1  0  0  0  0
 10 12  1  0  0  0  0
 10 13  1  0  0  0  0
M  END
> <VConfSearch Rank>
546

> <Conf_Id>
1

> <Delta U+W>
-1.339

> <U+W>
-59.672

> <U>
7.389

> <W>
-67.061

> <W(PB)>
-68.767

> <W(SA)>
1.707

> <Valence>
5.822

> <Coulomb>
1.255

> <VdW>
0.312

> <VdW6>
-3.061

> <VdW12>
3.372

> <Bond>
0.059

> <Angle>
2.241

> <Pdih>
3.522

> <Idih>
0.000

> <Tether>
0.000

$$$$
VeraChem MOL file


 13 12  0  0  0  0  0  0  0  0999 V2000     
   18.5451   19.1890   22.8124 C   0  0  0  0  0  0  0  0  0  0  0  0
   18.5888   19.4480   23.9986 O   0  5  0  0  0  0  0  0  0  0  0  0
   17.7584   19.7039   22.0431 O   0  0  0  0  0  0  0  0  0  0  0  0
   19.5064   18.1345   22.2696 C   0  0  0  0  0  0  0  0  0  0  0  0
   19.1371   17.7905   21.2956 H   0  0  0  0  0  0  0  0  0  0  0  0
   19.4632   17.2731   22.9467 H   0  0  0  0  0  0  0  0  0  0  0  0
   20.9738   18.6182   22.1437 C   0  0  0  0  0  0  0  0  0  0  0  0
   21.3202   18.9988   23.1148 H   0  0  0  0  0  0  0  0  0  0  0  0
   21.6149   17.7619   21.8935 H   0  0  0  0  0  0  0  0  0  0  0  0
   21.1457   19.7082   21.0655 C   0  0  0  0  0  0  0  0  0  0  0  0
   20.5515   20.5995   21.3071 H   0  0  0  0  0  0  0  0  0  0  0  0
   22.1973   20.0137   20.9885 H   0  0  0  0  0  0  0  0  0  0  0  0
   20.8258   19.3408   20.0816 H   0  0  0  0  0  0  0  0  0  0  0  0
  1  2  1  0  0  0  0
  1  3  2  0  0  0  0
  1  4  1  0  0  0  0
  4  5  1  0  0  0  0
  4  6  1  0  0  0  0
  4  7  1  0  0  0  0
  7  8  1  0  0  0  0
  7  9  1  0  0  0  0
  7 10  1  0  0  0  0
 10 11  1  0  0  0  0
 10 12  1  0  0  0  0
 10 13  1  0  0  0  0
M  END
> <VConfSearch Rank>
547

> <Conf_Id>
4

> <Delta U+W>
0.281

> <U+W>
-58.051

> <U>
9.781

> <W>
-67.832

> <W(PB)>
-69.535

> <W(SA)>
1.703

> <Valence>
6.123

> <Coulomb>
3.449

> <VdW>
0.209

> <VdW6>
-3.762

> <VdW12>
3.972

> <Bond>
0.078

> <Angle>
2.428

> <Pdih>
3.616

> <Idih>
0.002

> <Tether>
0.000

$$$$
VeraChem MOL file


 13 12  0  0  0  0  0  0  0  0999 V2000     
   21.3668   18.5295   23.2036 C   0  0  0  0  0  0  0  0  0  0  0  0
   20.8635   18.4689   24.3076 O   0  5  0  0  0  0  0  0  0  0  0  0
   22.2346   17.7702   22.8207 O   0  0  0  0  0  0  0  0  0  0  0  0
   20.9123   19.6391   22.2586 C   0  0  0  0  0  0  0  0  0  0  0  0
   21.8141   20.1130   21.8530 H   0  0  0  0  0  0  0  0  0  0  0  0
   20.3875   20.4050   22.8427 H   0  0  0  0  0  0  0  0  0  0  0  0
   20.0167   19.1511   21.0911 C   0  0  0  0  0  0  0  0  0  0  0  0
   19.8638   19.9785   20.3847 H   0  0  0  0  0  0  0  0  0  0  0  0
   20.5350   18.3554   20.5378 H   0  0  0  0  0  0  0  0  0  0  0  0
   18.6434   18.6405   21.5740 C   0  0  0  0  0  0  0  0  0  0  0  0
   18.0986   19.4281   22.1110 H   0  0  0  0  0  0  0  0  0  0  0  0
   18.0280   18.3217   20.7227 H   0  0  0  0  0  0  0  0  0  0  0  0
   18.7567   17.7822   22.2495 H   0  0  0  0  0  0  0  0  0  0  0  0
  1  2  1  0  0  0  0
  1  3  2  0  0  0  0
  1  4  1  0  0  0  0
  4  5  1  0  0  0  0
  4  6  1  0  0  0  0
  4  7  1  0  0  0  0
  7  8  1  0  0  0  0
  7  9  1  0  0  0  0
  7 10  1  0  0  0  0
 10 11  1  0  0  0  0
 10 12  1  0  0  0  0
 10 13  1  0  0  0  0
M  END
> <VConfSearch Rank>
548

> <Conf_Id>
36

> <Delta U+W>
0.272

> <U+W>
-58.060

> <U>
9.781

> <W>
-67.841

> <W(PB)>
-69.537

> <W(SA)>
1.696

> <Valence>
6.123

> <Coulomb>
3.449

> <VdW>
0.209

> <VdW6>
-3.762

> <VdW12>
3.972

> <Bond>
0.078

> <Angle>
2.428

> <Pdih>
3.616

> <Idih>
0.002

> <Tether>
0.000

$$$$
VeraChem MOL file


 13 12  0  0  0  0  0  0  0  0999 V2000     
   19.6107   20.1616   20.0800 C   0  0  0  0  0  0  0  0  0  0  0  0
   19.5817   21.2750   20.5666 O   0  5  0  0  0  0  0  0  0  0  0  0
   19.4308   19.9517   18.8975 O   0  0  0  0  0  0  0  0  0  0  0  0
   19.8836   18.9487   20.9717 C   0  0  0  0  0  0  0  0  0  0  0  0
   20.7645   18.4361   20.5672 H   0  0  0  0  0  0  0  0  0  0  0  0
   19.0352   18.2630   20.8610 H   0  0  0  0  0  0  0  0  0  0  0  0
   20.1071   19.2650   22.4737 C   0  0  0  0  0  0  0  0  0  0  0  0
   20.9560   19.9546   22.5822 H   0  0  0  0  0  0  0  0  0  0  0  0
   19.2245   19.7813   22.8764 H   0  0  0  0  0  0  0  0  0  0  0  0
   20.3741   17.9853   23.2916 C   0  0  0  0  0  0  0  0  0  0  0  0
   21.2709   17.4665   22.9280 H   0  0  0  0  0  0  0  0  0  0  0  0
   20.5296   18.2290   24.3507 H   0  0  0  0  0  0  0  0  0  0  0  0
   19.5255   17.2919   23.2244 H   0  0  0  0  0  0  0  0  0  0  0  0
  1  2  1  0  0  0  0
  1  3  2  0  0  0  0
  1  4  1  0  0  0  0
  4  5  1  0  0  0  0
  4  6  1  0  0  0  0
  4  7  1  0  0  0  0
  7  8  1  0  0  0  0
  7  9  1  0  0  0  0
  7 10  1  0  0  0  0
 10 11  1  0  0  0  0
 10 12  1  0  0  0  0
 10 13  1  0  0  0  0
M  END
> <VConfSearch Rank>
549

> <Conf_Id>
0

> <Delta U+W>
0.000

> <U+W>
-58.332

> <U>
8.390

> <W>
-66.722

> <W(PB)>
-68.455

> <W(SA)>
1.733

> <Valence>
6.333

> <Coulomb>
1.215

> <VdW>
0.842

> <VdW6>
-3.344

> <VdW12>
4.186

> <Bond>
0.091

> <Angle>
2.713

> <Pdih>
3.529

> <Idih>
0.000

> <Tether>
0.000

$$$$
VeraChem MOL file


 13 12  0  0  0  0  0  0  0  0999 V2000     
   19.3614   17.1848   21.0409 C   0  0  0  0  0  0  0  0  0  0  0  0
   19.1045   17.1704   19.8538 O   0  5  0  0  0  0  0  0  0  0  0  0
   18.8970   16.3944   21.8376 O   0  0  0  0  0  0  0  0  0  0  0  0
   20.3031   18.2652   21.5620 C   0  0  0  0  0  0  0  0  0  0  0  0
   21.0325   18.4911   20.7745 H   0  0  0  0  0  0  0  0  0  0  0  0
   20.8613   17.8512   22.4105 H   0  0  0  0  0  0  0  0  0  0  0  0
   19.5639   19.5561   21.9896 C   0  0  0  0  0  0  0  0  0  0  0  0
   19.0006   19.9561   21.1349 H   0  0  0  0  0  0  0  0  0  0  0  0
   18.8295   19.3161   22.7712 H   0  0  0  0  0  0  0  0  0  0  0  0
   20.5426   20.6274   22.5109 C   0  0  0  0  0  0  0  0  0  0  0  0
   20.0004   21.5343   22.8089 H   0  0  0  0  0  0  0  0  0  0  0  0
   21.0968   20.2610   23.3851 H   0  0  0  0  0  0  0  0  0  0  0  0
   21.2691   20.9060   21.7361 H   0  0  0  0  0  0  0  0  0  0  0  0
  1  2  1  0  0  0  0
  1  3  2  0  0  0  0
  1  4  1  0  0  0  0
  4  5  1  0  0  0  0
  4  6  1  0  0  0  0
  4  7  1  0  0  0  0
  7  8  1  0  0  0  0
  7  9  1  0  0  0  0
  7 10  1  0  0  0  0
 10 11  1  0  0  0  0
 10 12  1  0  0  0  0
 10 13  1  0  0  0  0
M  END
> <VConfSearch Rank>
550

> <Conf_Id>
1

> <Delta U+W>
-1.339

> <U+W>
-59.672

> <U>
7.389

> <W>
-67.061

> <W(PB)>
-68.767

> <W(SA)>
1.707

> <Valence>
5.822

> <Coulomb>
1.255

> <VdW>
0.312

> <VdW6>
-3.061

> <VdW12>
3.372

> <Bond>
0.059

> <Angle>
2.241

> <Pdih>
3.522

> <Idih>
0.000

> <Tether>
0.000

$$$$
VeraChem MOL file


 13 12  0  0  0  0  0  0  0  0999 V2000     
   19.6150   20.2132   20.8141 C   0  0  0  0  0  0  0  0  0  0  0  0
   20.3574   21.1668   20.6901 O   0  5  0  0  0  0  0  0  0  0  0  0
   19.0475   19.6806   19.8812 O   0  0  0  0  0  0  0  0  0  0  0  0
   19.3552   19.6807   22.2212 C   0  0  0  0  0  0  0  0  0  0  0  0
   18.4507   19.0604   22.2007 H   0  0  0  0  0  0  0  0  0  0  0  0
   19.1334   20.5429   22.8613 H   0  0  0  0  0  0  0  0  0  0  0  0
   20.5377   18.8806   22.8253 C   0  0  0  0  0  0  0  0  0  0  0  0
   21.4478   19.4964   22.8030 H   0  0  0  0  0  0  0  0  0  0  0  0
   20.3260   18.6685   23.8822 H   0  0  0  0  0  0  0  0  0  0  0  0
   20.7901   17.5508   22.0851 C   0  0  0  0  0  0  0  0  0  0  0  0
   21.0490   17.7279   21.0327 H   0  0  0  0  0  0  0  0  0  0  0  0
   21.6192   17.0011   22.5493 H   0  0  0  0  0  0  0  0  0  0  0  0
   19.8991   16.9101   22.1145 H   0  0  0  0  0  0  0  0  0  0  0  0
  1  2  1  0  0  0  0
  1  3  2  0  0  0  0
  1  4  1  0  0  0  0
  4  5  1  0  0  0  0
  4  6  1  0  0  0  0
  4  7  1  0  0  0  0
  7  8  1  0  0  0  0
  7  9  1  0  0  0  0
  7 10  1  0  0  0  0
 10 11  1  0  0  0  0
 10 12  1  0  0  0  0
 10 13  1  0  0  0  0
M  END
> <VConfSearch Rank>
551

> <Conf_Id>
4

> <Delta U+W>
0.281

> <U+W>
-58.051

> <U>
9.781

> <W>
-67.832

> <W(PB)>
-69.535

> <W(SA)>
1.703

> <Valence>
6.123

> <Coulomb>
3.449

> <VdW>
0.209

> <VdW6>
-3.762

> <VdW12>
3.972

> <Bond>
0.078

> <Angle>
2.428

> <Pdih>
3.616

> <Idih>
0.002

> <Tether>
0.000

$$$$
VeraChem MOL file


 13 12  0  0  0  0  0  0  0  0999 V2000     
   21.4273   18.4665   23.1114 C   0  0  0  0  0  0  0  0  0  0  0  0
   21.3542   19.1079   24.1406 O   0  5  0  0  0  0  0  0  0  0  0  0
   21.7386   17.2927   23.0746 O   0  0  0  0  0  0  0  0  0  0  0  0
   21.1486   19.1796   21.7906 C   0  0  0  0  0  0  0  0  0  0  0  0
   21.9641   18.9250   21.1031 H   0  0  0  0  0  0  0  0  0  0  0  0
   21.2018   20.2625   21.9578 H   0  0  0  0  0  0  0  0  0  0  0  0
   19.7914   18.8057   21.1415 C   0  0  0  0  0  0  0  0  0  0  0  0
   19.7417   19.2420   20.1345 H   0  0  0  0  0  0  0  0  0  0  0  0
   19.7316   17.7154   21.0165 H   0  0  0  0  0  0  0  0  0  0  0  0
   18.5858   19.3025   21.9660 C   0  0  0  0  0  0  0  0  0  0  0  0
   18.6142   20.3937   22.0841 H   0  0  0  0  0  0  0  0  0  0  0  0
   17.6428   19.0390   21.4697 H   0  0  0  0  0  0  0  0  0  0  0  0
   18.5790   18.8506   22.9668 H   0  0  0  0  0  0  0  0  0  0  0  0
  1  2  1  0  0  0  0
  1  3  2  0  0  0  0
  1  4  1  0  0  0  0
  4  5  1  0  0  0  0
  4  6  1  0  0  0  0
  4  7  1  0  0  0  0
  7  8  1  0  0  0  0
  7  9  1  0  0  0  0
  7 10  1  0  0  0  0
 10 11  1  0  0  0  0
 10 12  1  0  0  0  0
 10 13  1  0  0  0  0
M  END
> <VConfSearch Rank>
552

> <Conf_Id>
36

> <Delta U+W>
0.272

> <U+W>
-58.060

> <U>
9.781

> <W>
-67.841

> <W(PB)>
-69.537

> <W(SA)>
1.696

> <Valence>
6.123

> <Coulomb>
3.449

> <VdW>
0.209

> <VdW6>
-3.762

> <VdW12>
3.972

> <Bond>
0.078

> <Angle>
2.428

> <Pdih>
3.616

> <Idih>
0.002

> <Tether>
0.000

$$$$
VeraChem MOL file


 13 12  0  0  0  0  0  0  0  0999 V2000     
   20.6571   17.0330   21.2981 C   0  0  0  0  0  0  0  0  0  0  0  0
   19.9387   16.3757   22.0255 O   0  5  0  0  0  0  0  0  0  0  0  0
   21.4640   16.5347   20.5396 O   0  0  0  0  0  0  0  0  0  0  0  0
   20.5649   18.5601   21.3160 C   0  0  0  0  0  0  0  0  0  0  0  0
   20.3360   18.8865   20.2945 H   0  0  0  0  0  0  0  0  0  0  0  0
   21.5620   18.9458   21.5596 H   0  0  0  0  0  0  0  0  0  0  0  0
   19.5213   19.1513   22.2996 C   0  0  0  0  0  0  0  0  0  0  0  0
   18.5233   18.7612   22.0556 H   0  0  0  0  0  0  0  0  0  0  0  0
   19.7507   18.8205   23.3222 H   0  0  0  0  0  0  0  0  0  0  0  0
   19.4997   20.6923   22.2485 C   0  0  0  0  0  0  0  0  0  0  0  0
   19.2418   21.0485   21.2424 H   0  0  0  0  0  0  0  0  0  0  0  0
   18.7561   21.0919   22.9504 H   0  0  0  0  0  0  0  0  0  0  0  0
   20.4791   21.1082   22.5192 H   0  0  0  0  0  0  0  0  0  0  0  0
  1  2  1  0  0  0  0
  1  3  2  0  0  0  0
  1  4  1  0  0  0  0
  4  5  1  0  0  0  0
  4  6  1  0  0  0  0
  4  7  1  0  0  0  0
  7  8  1  0  0  0  0
  7  9  1  0  0  0  0
  7 10  1  0  0  0  0
 10 11  1  0  0  0  0
 10 12  1  0  0  0  0
 10 13  1  0  0  0  0
M  END
> <VConfSearch Rank>
553

> <Conf_Id>
0

> <Delta U+W>
0.000

> <U+W>
-58.332

> <U>
8.390

> <W>
-66.722

> <W(PB)>
-68.455

> <W(SA)>
1.733

> <Valence>
6.333

> <Coulomb>
1.215

> <VdW>
0.842

> <VdW6>
-3.344

> <VdW12>
4.186

> <Bond>
0.091

> <Angle>
2.713

> <Pdih>
3.529

> <Idih>
0.000

> <Tether>
0.000

$$$$
VeraChem MOL file


 13 12  0  0  0  0  0  0  0  0999 V2000     
   20.7608   19.6410   23.7038 C   0  0  0  0  0  0  0  0  0  0  0  0
   20.0959   20.4491   24.3204 O   0  5  0  0  0  0  0  0  0  0  0  0
   21.9570   19.4982   23.8590 O   0  0  0  0  0  0  0  0  0  0  0  0
   20.0594   18.7720   22.6654 C   0  0  0  0  0  0  0  0  0  0  0  0
   19.0353   18.5861   23.0113 H   0  0  0  0  0  0  0  0  0  0  0  0
   20.5701   17.8019   22.6308 H   0  0  0  0  0  0  0  0  0  0  0  0
   20.0375   19.4128   21.2566 C   0  0  0  0  0  0  0  0  0  0  0  0
   19.5327   20.3878   21.3052 H   0  0  0  0  0  0  0  0  0  0  0  0
   21.0677   19.6034   20.9246 H   0  0  0  0  0  0  0  0  0  0  0  0
   19.3222   18.5107   20.2310 C   0  0  0  0  0  0  0  0  0  0  0  0
   19.3169   18.9815   19.2392 H   0  0  0  0  0  0  0  0  0  0  0  0
   19.8270   17.5397   20.1426 H   0  0  0  0  0  0  0  0  0  0  0  0
   18.2802   18.3301   20.5261 H   0  0  0  0  0  0  0  0  0  0  0  0
  1  2  1  0  0  0  0
  1  3  2  0  0  0  0
  1  4  1  0  0  0  0
  4  5  1  0  0  0  0
  4  6  1  0  0  0  0
  4  7  1  0  0  0  0
  7  8  1  0  0  0  0
  7  9  1  0  0  0  0
  7 10  1  0  0  0  0
 10 11  1  0  0  0  0
 10 12  1  0  0  0  0
 10 13  1  0  0  0  0
M  END
> <VConfSearch Rank>
554

> <Conf_Id>
1

> <Delta U+W>
-1.339

> <U+W>
-59.672

> <U>
7.389

> <W>
-67.061

> <W(PB)>
-68.767

> <W(SA)>
1.707

> <Valence>
5.822

> <Coulomb>
1.255

> <VdW>
0.312

> <VdW6>
-3.061

> <VdW12>
3.372

> <Bond>
0.059

> <Angle>
2.241

> <Pdih>
3.522

> <Idih>
0.000

> <Tether>
0.000

$$$$
VeraChem MOL file


 13 12  0  0  0  0  0  0  0  0999 V2000     
   20.1704   20.5615   21.1794 C   0  0  0  0  0  0  0  0  0  0  0  0
   20.5870   21.4898   21.8433 O   0  5  0  0  0  0  0  0  0  0  0  0
   20.4331   20.4086   20.0032 O   0  0  0  0  0  0  0  0  0  0  0  0
   19.2394   19.5557   21.8519 C   0  0  0  0  0  0  0  0  0  0  0  0
   18.7106   18.9916   21.0738 H   0  0  0  0  0  0  0  0  0  0  0  0
   18.4806   20.1276   22.3992 H   0  0  0  0  0  0  0  0  0  0  0  0
   19.9529   18.5826   22.8251 C   0  0  0  0  0  0  0  0  0  0  0  0
   20.5131   19.1580   23.5755 H   0  0  0  0  0  0  0  0  0  0  0  0
   19.1974   18.0021   23.3719 H   0  0  0  0  0  0  0  0  0  0  0  0
   20.9045   17.6112   22.0965 C   0  0  0  0  0  0  0  0  0  0  0  0
   21.7013   18.1569   21.5738 H   0  0  0  0  0  0  0  0  0  0  0  0
   21.3775   16.9246   22.8106 H   0  0  0  0  0  0  0  0  0  0  0  0
   20.3603   17.0098   21.3566 H   0  0  0  0  0  0  0  0  0  0  0  0
  1  2  1  0  0  0  0
  1  3  2  0  0  0  0
  1  4  1  0  0  0  0
  4  5  1  0  0  0  0
  4  6  1  0  0  0  0
  4  7  1  0  0  0  0
  7  8  1  0  0  0  0
  7  9  1  0  0  0  0
  7 10  1  0  0  0  0
 10 11  1  0  0  0  0
 10 12  1  0  0  0  0
 10 13  1  0  0  0  0
M  END
> <VConfSearch Rank>
555

> <Conf_Id>
4

> <Delta U+W>
0.281

> <U+W>
-58.051

> <U>
9.781

> <W>
-67.832

> <W(PB)>
-69.535

> <W(SA)>
1.703

> <Valence>
6.123

> <Coulomb>
3.449

> <VdW>
0.209

> <VdW6>
-3.762

> <VdW12>
3.972

> <Bond>
0.078

> <Angle>
2.428

> <Pdih>
3.616

> <Idih>
0.002

> <Tether>
0.000

$$$$
VeraChem MOL file


 13 12  0  0  0  0  0  0  0  0999 V2000     
   19.2742   18.2502   20.5877 C   0  0  0  0  0  0  0  0  0  0  0  0
   18.1435   18.6896   20.5221 O   0  5  0  0  0  0  0  0  0  0  0  0
   19.9628   18.0253   19.6123 O   0  0  0  0  0  0  0  0  0  0  0  0
   19.8494   17.9292   21.9650 C   0  0  0  0  0  0  0  0  0  0  0  0
   20.2848   16.9243   21.9114 H   0  0  0  0  0  0  0  0  0  0  0  0
   19.0251   17.8792   22.6871 H   0  0  0  0  0  0  0  0  0  0  0  0
   20.9261   18.9323   22.4525 C   0  0  0  0  0  0  0  0  0  0  0  0
   21.3886   18.5457   23.3710 H   0  0  0  0  0  0  0  0  0  0  0  0
   21.7265   19.0058   21.7029 H   0  0  0  0  0  0  0  0  0  0  0  0
   20.3442   20.3333   22.7325 C   0  0  0  0  0  0  0  0  0  0  0  0
   19.5568   20.2858   23.4961 H   0  0  0  0  0  0  0  0  0  0  0  0
   21.1274   21.0123   23.0940 H   0  0  0  0  0  0  0  0  0  0  0  0
   19.9116   20.7701   21.8226 H   0  0  0  0  0  0  0  0  0  0  0  0
  1  2  1  0  0  0  0
  1  3  2  0  0  0  0
  1  4  1  0  0  0  0
  4  5  1  0  0  0  0
  4  6  1  0  0  0  0
  4  7  1  0  0  0  0
  7  8  1  0  0  0  0
  7  9  1  0  0  0  0
  7 10  1  0  0  0  0
 10 11  1  0  0  0  0
 10 12  1  0  0  0  0
 10 13  1  0  0  0  0
M  END
> <VConfSearch Rank>
556

> <Conf_Id>
36

> <Delta U+W>
0.272

> <U+W>
-58.060

> <U>
9.781

> <W>
-67.841

> <W(PB)>
-69.537

> <W(SA)>
1.696

> <Valence>
6.123

> <Coulomb>
3.449

> <VdW>
0.209

> <VdW6>
-3.762

> <VdW12>
3.972

> <Bond>
0.078

> <Angle>
2.428

> <Pdih>
3.616

> <Idih>
0.002

> <Tether>
0.000

$$$$
VeraChem MOL file


 13 12  0  0  0  0  0  0  0  0999 V2000     
   20.6903   20.9448   22.3887 C   0  0  0  0  0  0  0  0  0  0  0  0
   21.8208   20.9222   21.9428 O   0  5  0  0  0  0  0  0  0  0  0  0
   20.2293   21.9038   22.9740 O   0  0  0  0  0  0  0  0  0  0  0  0
   19.7820   19.7251   22.2214 C   0  0  0  0  0  0  0  0  0  0  0  0
   18.8795   20.0583   21.6952 H   0  0  0  0  0  0  0  0  0  0  0  0
   19.4698   19.4090   23.2239 H   0  0  0  0  0  0  0  0  0  0  0  0
   20.4130   18.5250   21.4680 C   0  0  0  0  0  0  0  0  0  0  0  0
   20.7278   18.8447   20.4648 H   0  0  0  0  0  0  0  0  0  0  0  0
   21.3189   18.1946   21.9953 H   0  0  0  0  0  0  0  0  0  0  0  0
   19.4268   17.3457   21.3480 C   0  0  0  0  0  0  0  0  0  0  0  0
   18.5248   17.6423   20.7967 H   0  0  0  0  0  0  0  0  0  0  0  0
   19.8907   16.5069   20.8127 H   0  0  0  0  0  0  0  0  0  0  0  0
   19.1206   16.9871   22.3396 H   0  0  0  0  0  0  0  0  0  0  0  0
  1  2  1  0  0  0  0
  1  3  2  0  0  0  0
  1  4  1  0  0  0  0
  4  5  1  0  0  0  0
  4  6  1  0  0  0  0
  4  7  1  0  0  0  0
  7  8  1  0  0  0  0
  7  9  1  0  0  0  0
  7 10  1  0  0  0  0
 10 11  1  0  0  0  0
 10 12  1  0  0  0  0
 10 13  1  0  0  0  0
M  END
> <VConfSearch Rank>
557

> <Conf_Id>
0

> <Delta U+W>
0.000

> <U+W>
-58.332

> <U>
8.390

> <W>
-66.722

> <W(PB)>
-68.455

> <W(SA)>
1.733

> <Valence>
6.333

> <Coulomb>
1.215

> <VdW>
0.842

> <VdW6>
-3.344

> <VdW12>
4.186

> <Bond>
0.091

> <Angle>
2.713

> <Pdih>
3.529

> <Idih>
0.000

> <Tether>
0.000

$$$$
VeraChem MOL file


 13 12  0  0  0  0  0  0  0  0999 V2000     
   19.7204   18.6881   19.7670 C   0  0  0  0  0  0  0  0  0  0  0  0
   19.5728   17.5283   19.4377 O   0  5  0  0  0  0  0  0  0  0  0  0
   20.1387   19.5497   19.0199 O   0  0  0  0  0  0  0  0  0  0  0  0
   19.3802   19.0797   21.2010 C   0  0  0  0  0  0  0  0  0  0  0  0
   18.5503   18.4476   21.5397 H   0  0  0  0  0  0  0  0  0  0  0  0
   19.0169   20.1146   21.1952 H   0  0  0  0  0  0  0  0  0  0  0  0
   20.5825   18.9426   22.1662 C   0  0  0  0  0  0  0  0  0  0  0  0
   20.9440   17.9048   22.1562 H   0  0  0  0  0  0  0  0  0  0  0  0
   21.4107   19.5722   21.8117 H   0  0  0  0  0  0  0  0  0  0  0  0
   20.2063   19.3454   23.6061 C   0  0  0  0  0  0  0  0  0  0  0  0
   21.0707   19.2417   24.2750 H   0  0  0  0  0  0  0  0  0  0  0  0
   19.8697   20.3898   23.6466 H   0  0  0  0  0  0  0  0  0  0  0  0
   19.3995   18.7096   23.9938 H   0  0  0  0  0  0  0  0  0  0  0  0
  1  2  1  0  0  0  0
  1  3  2  0  0  0  0
  1  4  1  0  0  0  0
  4  5  1  0  0  0  0
  4  6  1  0  0  0  0
  4  7  1  0  0  0  0
  7  8  1  0  0  0  0
  7  9  1  0  0  0  0
  7 10  1  0  0  0  0
 10 11  1  0  0  0  0
 10 12  1  0  0  0  0
 10 13  1  0  0  0  0
M  END
> <VConfSearch Rank>
558

> <Conf_Id>
1

> <Delta U+W>
-1.339

> <U+W>
-59.672

> <U>
7.389

> <W>
-67.061

> <W(PB)>
-68.767

> <W(SA)>
1.707

> <Valence>
5.822

> <Coulomb>
1.255

> <VdW>
0.312

> <VdW6>
-3.061

> <VdW12>
3.372

> <Bond>
0.059

> <Angle>
2.241

> <Pdih>
3.522

> <Idih>
0.000

> <Tether>
0.000

$$$$
VeraChem MOL file


 13 12  0  0  0  0  0  0  0  0999 V2000     
   19.2287   20.4887   21.6913 C   0  0  0  0  0  0  0  0  0  0  0  0
   19.7057   21.4955   22.1760 O   0  5  0  0  0  0  0  0  0  0  0  0
   18.7272   20.4507   20.5854 O   0  0  0  0  0  0  0  0  0  0  0  0
   19.2286   19.2146   22.5324 C   0  0  0  0  0  0  0  0  0  0  0  0
   18.5021   18.5121   22.1060 H   0  0  0  0  0  0  0  0  0  0  0  0
   18.8623   19.4819   23.5308 H   0  0  0  0  0  0  0  0  0  0  0  0
   20.6171   18.5365   22.6572 C   0  0  0  0  0  0  0  0  0  0  0  0
   21.3465   19.2608   23.0463 H   0  0  0  0  0  0  0  0  0  0  0  0
   20.5558   17.7238   23.3938 H   0  0  0  0  0  0  0  0  0  0  0  0
   21.1171   17.9635   21.3150 C   0  0  0  0  0  0  0  0  0  0  0  0
   21.2329   18.7576   20.5654 H   0  0  0  0  0  0  0  0  0  0  0  0
   22.0914   17.4741   21.4422 H   0  0  0  0  0  0  0  0  0  0  0  0
   20.4128   17.2202   20.9189 H   0  0  0  0  0  0  0  0  0  0  0  0
  1  2  1  0  0  0  0
  1  3  2  0  0  0  0
  1  4  1  0  0  0  0
  4  5  1  0  0  0  0
  4  6  1  0  0  0  0
  4  7  1  0  0  0  0
  7  8  1  0  0  0  0
  7  9  1  0  0  0  0
  7 10  1  0  0  0  0
 10 11  1  0  0  0  0
 10 12  1  0  0  0  0
 10 13  1  0  0  0  0
M  END
> <VConfSearch Rank>
559

> <Conf_Id>
4

> <Delta U+W>
0.281

> <U+W>
-58.051

> <U>
9.781

> <W>
-67.832

> <W(PB)>
-69.535

> <W(SA)>
1.703

> <Valence>
6.123

> <Coulomb>
3.449

> <VdW>
0.209

> <VdW6>
-3.762

> <VdW12>
3.972

> <Bond>
0.078

> <Angle>
2.428

> <Pdih>
3.616

> <Idih>
0.002

> <Tether>
0.000

$$$$
VeraChem MOL file


 13 12  0  0  0  0  0  0  0  0999 V2000     
   21.7671   18.6577   21.3707 C   0  0  0  0  0  0  0  0  0  0  0  0
   21.8113   18.9282   20.1872 O   0  5  0  0  0  0  0  0  0  0  0  0
   22.6799   18.8765   22.1422 O   0  0  0  0  0  0  0  0  0  0  0  0
   20.5140   17.9745   21.9127 C   0  0  0  0  0  0  0  0  0  0  0  0
   20.8425   17.1197   22.5158 H   0  0  0  0  0  0  0  0  0  0  0  0
   19.9435   17.5665   21.0693 H   0  0  0  0  0  0  0  0  0  0  0  0
   19.6107   18.8953   22.7727 C   0  0  0  0  0  0  0  0  0  0  0  0
   18.8224   18.2904   23.2412 H   0  0  0  0  0  0  0  0  0  0  0  0
   20.2021   19.3311   23.5902 H   0  0  0  0  0  0  0  0  0  0  0  0
   18.9571   20.0211   21.9449 C   0  0  0  0  0  0  0  0  0  0  0  0
   18.3427   19.6066   21.1349 H   0  0  0  0  0  0  0  0  0  0  0  0
   18.3100   20.6415   22.5786 H   0  0  0  0  0  0  0  0  0  0  0  0
   19.7178   20.6741   21.4967 H   0  0  0  0  0  0  0  0  0  0  0  0
  1  2  1  0  0  0  0
  1  3  2  0  0  0  0
  1  4  1  0  0  0  0
  4  5  1  0  0  0  0
  4  6  1  0  0  0  0
  4  7  1  0  0  0  0
  7  8  1  0  0  0  0
  7  9  1  0  0  0  0
  7 10  1  0  0  0  0
 10 11  1  0  0  0  0
 10 12  1  0  0  0  0
 10 13  1  0  0  0  0
M  END
> <VConfSearch Rank>
560

> <Conf_Id>
36

> <Delta U+W>
0.272

> <U+W>
-58.060

> <U>
9.781

> <W>
-67.841

> <W(PB)>
-69.537

> <W(SA)>
1.696

> <Valence>
6.123

> <Coulomb>
3.449

> <VdW>
0.209

> <VdW6>
-3.762

> <VdW12>
3.972

> <Bond>
0.078

> <Angle>
2.428

> <Pdih>
3.616

> <Idih>
0.002

> <Tether>
0.000

$$$$
VeraChem MOL file


 13 12  0  0  0  0  0  0  0  0999 V2000     
   19.4011   18.0819   23.6421 C   0  0  0  0  0  0  0  0  0  0  0  0
   18.9730   17.0274   23.2152 O   0  5  0  0  0  0  0  0  0  0  0  0
   19.3966   18.3683   24.8223 O   0  0  0  0  0  0  0  0  0  0  0  0
   19.9782   19.1164   22.6739 C   0  0  0  0  0  0  0  0  0  0  0  0
   21.0076   19.3227   22.9900 H   0  0  0  0  0  0  0  0  0  0  0  0
   19.4098   20.0444   22.8088 H   0  0  0  0  0  0  0  0  0  0  0  0
   19.9631   18.7073   21.1778 C   0  0  0  0  0  0  0  0  0  0  0  0
   20.5308   17.7756   21.0453 H   0  0  0  0  0  0  0  0  0  0  0  0
   18.9309   18.4981   20.8638 H   0  0  0  0  0  0  0  0  0  0  0  0
   20.5623   19.8086   20.2801 C   0  0  0  0  0  0  0  0  0  0  0  0
   21.6054   20.0146   20.5541 H   0  0  0  0  0  0  0  0  0  0  0  0
   20.5430   19.5014   19.2264 H   0  0  0  0  0  0  0  0  0  0  0  0
   19.9927   20.7429   20.3712 H   0  0  0  0  0  0  0  0  0  0  0  0
  1  2  1  0  0  0  0
  1  3  2  0  0  0  0
  1  4  1  0  0  0  0
  4  5  1  0  0  0  0
  4  6  1  0  0  0  0
  4  7  1  0  0  0  0
  7  8  1  0  0  0  0
  7  9  1  0  0  0  0
  7 10  1  0  0  0  0
 10 11  1  0  0  0  0
 10 12  1  0  0  0  0
 10 13  1  0  0  0  0
M  END
> <VConfSearch Rank>
561

> <Conf_Id>
0

> <Delta U+W>
0.000

> <U+W>
-58.332

> <U>
8.390

> <W>
-66.722

> <W(PB)>
-68.455

> <W(SA)>
1.733

> <Valence>
6.333

> <Coulomb>
1.215

> <VdW>
0.842

> <VdW6>
-3.344

> <VdW12>
4.186

> <Bond>
0.091

> <Angle>
2.713

> <Pdih>
3.529

> <Idih>
0.000

> <Tether>
0.000

$$$$
VeraChem MOL file


 13 12  0  0  0  0  0  0  0  0999 V2000     
   17.8932   18.7860   21.8728 C   0  0  0  0  0  0  0  0  0  0  0  0
   17.4922   17.7252   22.3078 O   0  5  0  0  0  0  0  0  0  0  0  0
   17.2564   19.4809   21.1066 O   0  0  0  0  0  0  0  0  0  0  0  0
   19.2785   19.2621   22.2968 C   0  0  0  0  0  0  0  0  0  0  0  0
   19.4622   18.9105   23.3194 H   0  0  0  0  0  0  0  0  0  0  0  0
   19.2677   20.3584   22.3288 H   0  0  0  0  0  0  0  0  0  0  0  0
   20.4020   18.7678   21.3538 C   0  0  0  0  0  0  0  0  0  0  0  0
   20.3968   17.6693   21.3218 H   0  0  0  0  0  0  0  0  0  0  0  0
   20.2024   19.1175   20.3312 H   0  0  0  0  0  0  0  0  0  0  0  0
   21.7885   19.2654   21.8091 C   0  0  0  0  0  0  0  0  0  0  0  0
   22.5712   18.9052   21.1289 H   0  0  0  0  0  0  0  0  0  0  0  0
   21.8278   20.3626   21.8204 H   0  0  0  0  0  0  0  0  0  0  0  0
   22.0237   18.9033   22.8186 H   0  0  0  0  0  0  0  0  0  0  0  0
  1  2  1  0  0  0  0
  1  3  2  0  0  0  0
  1  4  1  0  0  0  0
  4  5  1  0  0  0  0
  4  6  1  0  0  0  0
  4  7  1  0  0  0  0
  7  8  1  0  0  0  0
  7  9  1  0  0  0  0
  7 10  1  0  0  0  0
 10 11  1  0  0  0  0
 10 12  1  0  0  0  0
 10 13  1  0  0  0  0
M  END
> <VConfSearch Rank>
562

> <Conf_Id>
1

> <Delta U+W>
-1.339

> <U+W>
-59.672

> <U>
7.389

> <W>
-67.061

> <W(PB)>
-68.767

> <W(SA)>
1.707

> <Valence>
5.822

> <Coulomb>
1.255

> <VdW>
0.312

> <VdW6>
-3.061

> <VdW12>
3.372

> <Bond>
0.059

> <Angle>
2.241

> <Pdih>
3.522

> <Idih>
0.000

> <Tether>
0.000

$$$$
VeraChem MOL file


 13 12  0  0  0  0  0  0  0  0999 V2000     
   21.8561   19.3149   22.3043 C   0  0  0  0  0  0  0  0  0  0  0  0
   22.1048   19.9226   23.3264 O   0  5  0  0  0  0  0  0  0  0  0  0
   22.5355   18.3976   21.8885 O   0  0  0  0  0  0  0  0  0  0  0  0
   20.6461   19.7523   21.4825 C   0  0  0  0  0  0  0  0  0  0  0  0
   20.7424   19.3424   20.4696 H   0  0  0  0  0  0  0  0  0  0  0  0
   20.6922   20.8438   21.3880 H   0  0  0  0  0  0  0  0  0  0  0  0
   19.2817   19.3451   22.0957 C   0  0  0  0  0  0  0  0  0  0  0  0
   19.2128   19.7255   23.1245 H   0  0  0  0  0  0  0  0  0  0  0  0
   18.4738   19.8253   21.5269 H   0  0  0  0  0  0  0  0  0  0  0  0
   19.0637   17.8179   22.0892 C   0  0  0  0  0  0  0  0  0  0  0  0
   19.8303   17.3073   22.6871 H   0  0  0  0  0  0  0  0  0  0  0  0
   18.0822   17.5655   22.5111 H   0  0  0  0  0  0  0  0  0  0  0  0
   19.1066   17.4197   21.0670 H   0  0  0  0  0  0  0  0  0  0  0  0
  1  2  1  0  0  0  0
  1  3  2  0  0  0  0
  1  4  1  0  0  0  0
  4  5  1  0  0  0  0
  4  6  1  0  0  0  0
  4  7  1  0  0  0  0
  7  8  1  0  0  0  0
  7  9  1  0  0  0  0
  7 10  1  0  0  0  0
 10 11  1  0  0  0  0
 10 12  1  0  0  0  0
 10 13  1  0  0  0  0
M  END
> <VConfSearch Rank>
563

> <Conf_Id>
4

> <Delta U+W>
0.281

> <U+W>
-58.051

> <U>
9.781

> <W>
-67.832

> <W(PB)>
-69.535

> <W(SA)>
1.703

> <Valence>
6.123

> <Coulomb>
3.449

> <VdW>
0.209

> <VdW6>
-3.762

> <VdW12>
3.972

> <Bond>
0.078

> <Angle>
2.428

> <Pdih>
3.616

> <Idih>
0.002

> <Tether>
0.000

$$$$
VeraChem MOL file


 13 12  0  0  0  0  0  0  0  0999 V2000     
   19.1778   20.4938   22.0205 C   0  0  0  0  0  0  0  0  0  0  0  0
   18.2715   20.4268   21.2143 O   0  5  0  0  0  0  0  0  0  0  0  0
   19.0738   21.0391   23.1012 O   0  0  0  0  0  0  0  0  0  0  0  0
   20.5300   19.8934   21.6438 C   0  0  0  0  0  0  0  0  0  0  0  0
   21.2963   20.6431   21.8741 H   0  0  0  0  0  0  0  0  0  0  0  0
   20.5553   19.7379   20.5582 H   0  0  0  0  0  0  0  0  0  0  0  0
   20.8646   18.5710   22.3805 C   0  0  0  0  0  0  0  0  0  0  0  0
   21.9059   18.2935   22.1668 H   0  0  0  0  0  0  0  0  0  0  0  0
   20.7960   18.7274   23.4662 H   0  0  0  0  0  0  0  0  0  0  0  0
   19.9379   17.4110   21.9616 C   0  0  0  0  0  0  0  0  0  0  0  0
   20.0079   17.2230   20.8822 H   0  0  0  0  0  0  0  0  0  0  0  0
   20.2138   16.4868   22.4859 H   0  0  0  0  0  0  0  0  0  0  0  0
   18.8903   17.6362   22.2019 H   0  0  0  0  0  0  0  0  0  0  0  0
  1  2  1  0  0  0  0
  1  3  2  0  0  0  0
  1  4  1  0  0  0  0
  4  5  1  0  0  0  0
  4  6  1  0  0  0  0
  4  7  1  0  0  0  0
  7  8  1  0  0  0  0
  7  9  1  0  0  0  0
  7 10  1  0  0  0  0
 10 11  1  0  0  0  0
 10 12  1  0  0  0  0
 10 13  1  0  0  0  0
M  END
> <VConfSearch Rank>
564

> <Conf_Id>
36

> <Delta U+W>
0.272

> <U+W>
-58.060

> <U>
9.781

> <W>
-67.841

> <W(PB)>
-69.537

> <W(SA)>
1.696

> <Valence>
6.123

> <Coulomb>
3.449

> <VdW>
0.209

> <VdW6>
-3.762

> <VdW12>
3.972

> <Bond>
0.078

> <Angle>
2.428

> <Pdih>
3.616

> <Idih>
0.002

> <Tether>
0.000

$$$$
VeraChem MOL file


 13 12  0  0  0  0  0  0  0  0999 V2000     
   18.1448   18.0494   22.1621 C   0  0  0  0  0  0  0  0  0  0  0  0
   17.4269   19.0243   22.2700 O   0  5  0  0  0  0  0  0  0  0  0  0
   17.7322   16.9109   22.2529 O   0  0  0  0  0  0  0  0  0  0  0  0
   19.6411   18.2319   21.9000 C   0  0  0  0  0  0  0  0  0  0  0  0
   19.8792   17.6961   20.9733 H   0  0  0  0  0  0  0  0  0  0  0  0
   20.1798   17.7257   22.7099 H   0  0  0  0  0  0  0  0  0  0  0  0
   20.1222   19.7025   21.7916 C   0  0  0  0  0  0  0  0  0  0  0  0
   19.5791   20.2087   20.9813 H   0  0  0  0  0  0  0  0  0  0  0  0
   19.8800   20.2383   22.7200 H   0  0  0  0  0  0  0  0  0  0  0  0
   21.6391   19.7874   21.5277 C   0  0  0  0  0  0  0  0  0  0  0  0
   21.9031   19.2851   20.5877 H   0  0  0  0  0  0  0  0  0  0  0  0
   21.9606   20.8345   21.4542 H   0  0  0  0  0  0  0  0  0  0  0  0
   22.2064   19.3149   22.3403 H   0  0  0  0  0  0  0  0  0  0  0  0
  1  2  1  0  0  0  0
  1  3  2  0  0  0  0
  1  4  1  0  0  0  0
  4  5  1  0  0  0  0
  4  6  1  0  0  0  0
  4  7  1  0  0  0  0
  7  8  1  0  0  0  0
  7  9  1  0  0  0  0
  7 10  1  0  0  0  0
 10 11  1  0  0  0  0
 10 12  1  0  0  0  0
 10 13  1  0  0  0  0
M  END
> <VConfSearch Rank>
565

> <Conf_Id>
0

> <Delta U+W>
0.000

> <U+W>
-58.332

> <U>
8.390

> <W>
-66.722

> <W(PB)>
-68.455

> <W(SA)>
1.733

> <Valence>
6.333

> <Coulomb>
1.215

> <VdW>
0.842

> <VdW6>
-3.344

> <VdW12>
4.186

> <Bond>
0.091

> <Angle>
2.713

> <Pdih>
3.529

> <Idih>
0.000

> <Tether>
0.000

$$$$
VeraChem MOL file


 13 12  0  0  0  0  0  0  0  0999 V2000     
   21.0363   18.1130   23.4150 C   0  0  0  0  0  0  0  0  0  0  0  0
   20.8586   18.5840   24.5204 O   0  5  0  0  0  0  0  0  0  0  0  0
   22.0300   17.4876   23.1039 O   0  0  0  0  0  0  0  0  0  0  0  0
   19.9625   18.3349   22.3552 C   0  0  0  0  0  0  0  0  0  0  0  0
   18.9882   18.3672   22.8579 H   0  0  0  0  0  0  0  0  0  0  0  0
   19.9542   17.4630   21.6898 H   0  0  0  0  0  0  0  0  0  0  0  0
   20.1817   19.6290   21.5347 C   0  0  0  0  0  0  0  0  0  0  0  0
   20.1981   20.4941   22.2122 H   0  0  0  0  0  0  0  0  0  0  0  0
   21.1642   19.5897   21.0438 H   0  0  0  0  0  0  0  0  0  0  0  0
   19.0807   19.8242   20.4731 C   0  0  0  0  0  0  0  0  0  0  0  0
   19.2531   20.7460   19.9022 H   0  0  0  0  0  0  0  0  0  0  0  0
   19.0643   18.9851   19.7653 H   0  0  0  0  0  0  0  0  0  0  0  0
   18.0908   19.8965   20.9427 H   0  0  0  0  0  0  0  0  0  0  0  0
  1  2  1  0  0  0  0
  1  3  2  0  0  0  0
  1  4  1  0  0  0  0
  4  5  1  0  0  0  0
  4  6  1  0  0  0  0
  4  7  1  0  0  0  0
  7  8  1  0  0  0  0
  7  9  1  0  0  0  0
  7 10  1  0  0  0  0
 10 11  1  0  0  0  0
 10 12  1  0  0  0  0
 10 13  1  0  0  0  0
M  END
> <VConfSearch Rank>
566

> <Conf_Id>
1

> <Delta U+W>
-1.339

> <U+W>
-59.672

> <U>
7.389

> <W>
-67.061

> <W(PB)>
-68.767

> <W(SA)>
1.707

> <Valence>
5.822

> <Coulomb>
1.255

> <VdW>
0.312

> <VdW6>
-3.061

> <VdW12>
3.372

> <Bond>
0.059

> <Angle>
2.241

> <Pdih>
3.522

> <Idih>
0.000

> <Tether>
0.000

$$$$
VeraChem MOL file


 13 12  0  0  0  0  0  0  0  0999 V2000     
   21.5424   20.0310   22.2650 C   0  0  0  0  0  0  0  0  0  0  0  0
   22.6320   19.5168   22.1090 O   0  5  0  0  0  0  0  0  0  0  0  0
   21.2776   21.1609   21.9055 O   0  0  0  0  0  0  0  0  0  0  0  0
   20.4620   19.2258   22.9827 C   0  0  0  0  0  0  0  0  0  0  0  0
   19.6787   19.9141   23.3233 H   0  0  0  0  0  0  0  0  0  0  0  0
   20.9182   18.7953   23.8821 H   0  0  0  0  0  0  0  0  0  0  0  0
   19.8412   18.0923   22.1264 C   0  0  0  0  0  0  0  0  0  0  0  0
   20.6384   17.4324   21.7562 H   0  0  0  0  0  0  0  0  0  0  0  0
   19.1911   17.4758   22.7622 H   0  0  0  0  0  0  0  0  0  0  0  0
   19.0186   18.6327   20.9385 C   0  0  0  0  0  0  0  0  0  0  0  0
   19.6486   19.2188   20.2563 H   0  0  0  0  0  0  0  0  0  0  0  0
   18.5776   17.8065   20.3657 H   0  0  0  0  0  0  0  0  0  0  0  0
   18.2017   19.2776   21.2880 H   0  0  0  0  0  0  0  0  0  0  0  0
  1  2  1  0  0  0  0
  1  3  2  0  0  0  0
  1  4  1  0  0  0  0
  4  5  1  0  0  0  0
  4  6  1  0  0  0  0
  4  7  1  0  0  0  0
  7  8  1  0  0  0  0
  7  9  1  0  0  0  0
  7 10  1  0  0  0  0
 10 11  1  0  0  0  0
 10 12  1  0  0  0  0
 10 13  1  0  0  0  0
M  END
> <VConfSearch Rank>
567

> <Conf_Id>
4

> <Delta U+W>
0.281

> <U+W>
-58.051

> <U>
9.781

> <W>
-67.832

> <W(PB)>
-69.535

> <W(SA)>
1.703

> <Valence>
6.123

> <Coulomb>
3.449

> <VdW>
0.209

> <VdW6>
-3.762

> <VdW12>
3.972

> <Bond>
0.078

> <Angle>
2.428

> <Pdih>
3.616

> <Idih>
0.002

> <Tether>
0.000

$$$$
VeraChem MOL file


 13 12  0  0  0  0  0  0  0  0999 V2000     
   21.3492   19.6559   20.8925 C   0  0  0  0  0  0  0  0  0  0  0  0
   21.8868   18.7597   20.2731 O   0  5  0  0  0  0  0  0  0  0  0  0
   21.0873   20.7398   20.4103 O   0  0  0  0  0  0  0  0  0  0  0  0
   21.0167   19.4229   22.3642 C   0  0  0  0  0  0  0  0  0  0  0  0
   21.3808   20.2930   22.9235 H   0  0  0  0  0  0  0  0  0  0  0  0
   21.5870   18.5562   22.7205 H   0  0  0  0  0  0  0  0  0  0  0  0
   19.5062   19.2220   22.6495 C   0  0  0  0  0  0  0  0  0  0  0  0
   19.3431   19.2134   23.7358 H   0  0  0  0  0  0  0  0  0  0  0  0
   18.9401   20.0761   22.2520 H   0  0  0  0  0  0  0  0  0  0  0  0
   18.9611   17.9103   22.0477 C   0  0  0  0  0  0  0  0  0  0  0  0
   19.4989   17.0412   22.4489 H   0  0  0  0  0  0  0  0  0  0  0  0
   17.8960   17.7894   22.2842 H   0  0  0  0  0  0  0  0  0  0  0  0
   19.0677   17.9032   20.9548 H   0  0  0  0  0  0  0  0  0  0  0  0
  1  2  1  0  0  0  0
  1  3  2  0  0  0  0
  1  4  1  0  0  0  0
  4  5  1  0  0  0  0
  4  6  1  0  0  0  0
  4  7  1  0  0  0  0
  7  8  1  0  0  0  0
  7  9  1  0  0  0  0
  7 10  1  0  0  0  0
 10 11  1  0  0  0  0
 10 12  1  0  0  0  0
 10 13  1  0  0  0  0
M  END
> <VConfSearch Rank>
568

> <Conf_Id>
36

> <Delta U+W>
0.272

> <U+W>
-58.060

> <U>
9.781

> <W>
-67.841

> <W(PB)>
-69.537

> <W(SA)>
1.696

> <Valence>
6.123

> <Coulomb>
3.449

> <VdW>
0.209

> <VdW6>
-3.762

> <VdW12>
3.972

> <Bond>
0.078

> <Angle>
2.428

> <Pdih>
3.616

> <Idih>
0.002

> <Tether>
0.000

$$$$
VeraChem MOL file


 13 12  0  0  0  0  0  0  0  0999 V2000     
   20.4484   20.0562   23.6243 C   0  0  0  0  0  0  0  0  0  0  0  0
   19.4657   19.7677   24.2788 O   0  5  0  0  0  0  0  0  0  0  0  0
   21.3372   20.7690   24.0448 O   0  0  0  0  0  0  0  0  0  0  0  0
   20.6016   19.5129   22.2023 C   0  0  0  0  0  0  0  0  0  0  0  0
   21.5463   18.9574   22.1638 H   0  0  0  0  0  0  0  0  0  0  0  0
   20.7091   20.3742   21.5322 H   0  0  0  0  0  0  0  0  0  0  0  0
   19.4428   18.6079   21.7083 C   0  0  0  0  0  0  0  0  0  0  0  0
   19.3350   17.7470   22.3828 H   0  0  0  0  0  0  0  0  0  0  0  0
   18.4967   19.1654   21.7505 H   0  0  0  0  0  0  0  0  0  0  0  0
   19.6838   18.1088   20.2693 C   0  0  0  0  0  0  0  0  0  0  0  0
   20.6092   17.5213   20.2070 H   0  0  0  0  0  0  0  0  0  0  0  0
   18.8543   17.4708   19.9375 H   0  0  0  0  0  0  0  0  0  0  0  0
   19.7643   18.9511   19.5696 H   0  0  0  0  0  0  0  0  0  0  0  0
  1  2  1  0  0  0  0
  1  3  2  0  0  0  0
  1  4  1  0  0  0  0
  4  5  1  0  0  0  0
  4  6  1  0  0  0  0
  4  7  1  0  0  0  0
  7  8  1  0  0  0  0
  7  9  1  0  0  0  0
  7 10  1  0  0  0  0
 10 11  1  0  0  0  0
 10 12  1  0  0  0  0
 10 13  1  0  0  0  0
M  END
> <VConfSearch Rank>
569

> <Conf_Id>
0

> <Delta U+W>
0.000

> <U+W>
-58.332

> <U>
8.390

> <W>
-66.722

> <W(PB)>
-68.455

> <W(SA)>
1.733

> <Valence>
6.333

> <Coulomb>
1.215

> <VdW>
0.842

> <VdW6>
-3.344

> <VdW12>
4.186

> <Bond>
0.091

> <Angle>
2.713

> <Pdih>
3.529

> <Idih>
0.000

> <Tether>
0.000

$$$$
VeraChem MOL file


 13 12  0  0  0  0  0  0  0  0999 V2000     
   21.5227   18.2261   20.6288 C   0  0  0  0  0  0  0  0  0  0  0  0
   22.0306   18.9838   19.8268 O   0  5  0  0  0  0  0  0  0  0  0  0
   21.5159   17.0183   20.4997 O   0  0  0  0  0  0  0  0  0  0  0  0
   20.8404   18.8244   21.8544 C   0  0  0  0  0  0  0  0  0  0  0  0
   21.3777   19.7395   22.1316 H   0  0  0  0  0  0  0  0  0  0  0  0
   20.9532   18.1187   22.6865 H   0  0  0  0  0  0  0  0  0  0  0  0
   19.3426   19.1363   21.6200 C   0  0  0  0  0  0  0  0  0  0  0  0
   19.2412   19.8359   20.7785 H   0  0  0  0  0  0  0  0  0  0  0  0
   18.8167   18.2147   21.3336 H   0  0  0  0  0  0  0  0  0  0  0  0
   18.6825   19.7394   22.8762 C   0  0  0  0  0  0  0  0  0  0  0  0
   17.6218   19.9536   22.6907 H   0  0  0  0  0  0  0  0  0  0  0  0
   18.7448   19.0449   23.7244 H   0  0  0  0  0  0  0  0  0  0  0  0
   19.1725   20.6785   23.1649 H   0  0  0  0  0  0  0  0  0  0  0  0
  1  2  1  0  0  0  0
  1  3  2  0  0  0  0
  1  4  1  0  0  0  0
  4  5  1  0  0  0  0
  4  6  1  0  0  0  0
  4  7  1  0  0  0  0
  7  8  1  0  0  0  0
  7  9  1  0  0  0  0
  7 10  1  0  0  0  0
 10 11  1  0  0  0  0
 10 12  1  0  0  0  0
 10 13  1  0  0  0  0
M  END
> <VConfSearch Rank>
570

> <Conf_Id>
1

> <Delta U+W>
-1.339

> <U+W>
-59.672

> <U>
7.389

> <W>
-67.061

> <W(PB)>
-68.767

> <W(SA)>
1.707

> <Valence>
5.822

> <Coulomb>
1.255

> <VdW>
0.312

> <VdW6>
-3.061

> <VdW12>
3.372

> <Bond>
0.059

> <Angle>
2.241

> <Pdih>
3.522

> <Idih>
0.000

> <Tether>
0.000

$$$$
VeraChem MOL file


 13 12  0  0  0  0  0  0  0  0999 V2000     
   19.1998   18.5452   20.5219 C   0  0  0  0  0  0  0  0  0  0  0  0
   19.6775   17.6727   19.8243 O   0  5  0  0  0  0  0  0  0  0  0  0
   18.0099   18.6483   20.7441 O   0  0  0  0  0  0  0  0  0  0  0  0
   20.1428   19.5861   21.1202 C   0  0  0  0  0  0  0  0  0  0  0  0
   19.5522   20.4548   21.4363 H   0  0  0  0  0  0  0  0  0  0  0  0
   20.8043   19.9289   20.3156 H   0  0  0  0  0  0  0  0  0  0  0  0
   20.9977   19.0628   22.3028 C   0  0  0  0  0  0  0  0  0  0  0  0
   21.5534   18.1685   21.9874 H   0  0  0  0  0  0  0  0  0  0  0  0
   21.7460   19.8216   22.5694 H   0  0  0  0  0  0  0  0  0  0  0  0
   20.1466   18.7354   23.5471 C   0  0  0  0  0  0  0  0  0  0  0  0
   19.4149   17.9464   23.3284 H   0  0  0  0  0  0  0  0  0  0  0  0
   20.7835   18.3870   24.3706 H   0  0  0  0  0  0  0  0  0  0  0  0
   19.5994   19.6223   23.8927 H   0  0  0  0  0  0  0  0  0  0  0  0
  1  2  1  0  0  0  0
  1  3  2  0  0  0  0
  1  4  1  0  0  0  0
  4  5  1  0  0  0  0
  4  6  1  0  0  0  0
  4  7  1  0  0  0  0
  7  8  1  0  0  0  0
  7  9  1  0  0  0  0
  7 10  1  0  0  0  0
 10 11  1  0  0  0  0
 10 12  1  0  0  0  0
 10 13  1  0  0  0  0
M  END
> <VConfSearch Rank>
571

> <Conf_Id>
4

> <Delta U+W>
0.281

> <U+W>
-58.051

> <U>
9.781

> <W>
-67.832

> <W(PB)>
-69.535

> <W(SA)>
1.703

> <Valence>
6.123

> <Coulomb>
3.449

> <VdW>
0.209

> <VdW6>
-3.762

> <VdW12>
3.972

> <Bond>
0.078

> <Angle>
2.428

> <Pdih>
3.616

> <Idih>
0.002

> <Tether>
0.000

$$$$
VeraChem MOL file


 13 12  0  0  0  0  0  0  0  0999 V2000     
   21.8387   18.5980   21.6655 C   0  0  0  0  0  0  0  0  0  0  0  0
   22.3497   19.5301   21.0772 O   0  5  0  0  0  0  0  0  0  0  0  0
   22.4153   17.9424   22.5103 O   0  0  0  0  0  0  0  0  0  0  0  0
   20.4093   18.2054   21.3005 C   0  0  0  0  0  0  0  0  0  0  0  0
   20.3967   17.1193   21.1504 H   0  0  0  0  0  0  0  0  0  0  0  0
   20.1550   18.6614   20.3358 H   0  0  0  0  0  0  0  0  0  0  0  0
   19.3531   18.5906   22.3679 C   0  0  0  0  0  0  0  0  0  0  0  0
   18.3877   18.1414   22.0976 H   0  0  0  0  0  0  0  0  0  0  0  0
   19.6392   18.1633   23.3393 H   0  0  0  0  0  0  0  0  0  0  0  0
   19.1785   20.1176   22.5016 C   0  0  0  0  0  0  0  0  0  0  0  0
   18.8706   20.5625   21.5463 H   0  0  0  0  0  0  0  0  0  0  0  0
   18.4112   20.3552   23.2498 H   0  0  0  0  0  0  0  0  0  0  0  0
   20.1159   20.5961   22.8149 H   0  0  0  0  0  0  0  0  0  0  0  0
  1  2  1  0  0  0  0
  1  3  2  0  0  0  0
  1  4  1  0  0  0  0
  4  5  1  0  0  0  0
  4  6  1  0  0  0  0
  4  7  1  0  0  0  0
  7  8  1  0  0  0  0
  7  9  1  0  0  0  0
  7 10  1  0  0  0  0
 10 11  1  0  0  0  0
 10 12  1  0  0  0  0
 10 13  1  0  0  0  0
M  END
> <VConfSearch Rank>
572

> <Conf_Id>
36

> <Delta U+W>
0.272

> <U+W>
-58.060

> <U>
9.781

> <W>
-67.841

> <W(PB)>
-69.537

> <W(SA)>
1.696

> <Valence>
6.123

> <Coulomb>
3.449

> <VdW>
0.209

> <VdW6>
-3.762

> <VdW12>
3.972

> <Bond>
0.078

> <Angle>
2.428

> <Pdih>
3.616

> <Idih>
0.002

> <Tether>
0.000

$$$$
VeraChem MOL file


 13 12  0  0  0  0  0  0  0  0999 V2000     
   18.1103   19.9162   21.5917 C   0  0  0  0  0  0  0  0  0  0  0  0
   18.4060   21.0803   21.7781 O   0  5  0  0  0  0  0  0  0  0  0  0
   16.9770   19.5521   21.3511 O   0  0  0  0  0  0  0  0  0  0  0  0
   19.1925   18.8367   21.6565 C   0  0  0  0  0  0  0  0  0  0  0  0
   19.1885   18.3105   20.6945 H   0  0  0  0  0  0  0  0  0  0  0  0
   18.8864   18.1112   22.4196 H   0  0  0  0  0  0  0  0  0  0  0  0
   20.6237   19.3483   21.9662 C   0  0  0  0  0  0  0  0  0  0  0  0
   20.9274   20.0773   21.2020 H   0  0  0  0  0  0  0  0  0  0  0  0
   20.6249   19.8779   22.9292 H   0  0  0  0  0  0  0  0  0  0  0  0
   21.6441   18.1931   22.0115 C   0  0  0  0  0  0  0  0  0  0  0  0
   21.6844   17.6664   21.0489 H   0  0  0  0  0  0  0  0  0  0  0  0
   22.6498   18.5741   22.2317 H   0  0  0  0  0  0  0  0  0  0  0  0
   21.3794   17.4654   22.7900 H   0  0  0  0  0  0  0  0  0  0  0  0
  1  2  1  0  0  0  0
  1  3  2  0  0  0  0
  1  4  1  0  0  0  0
  4  5  1  0  0  0  0
  4  6  1  0  0  0  0
  4  7  1  0  0  0  0
  7  8  1  0  0  0  0
  7  9  1  0  0  0  0
  7 10  1  0  0  0  0
 10 11  1  0  0  0  0
 10 12  1  0  0  0  0
 10 13  1  0  0  0  0
M  END
> <VConfSearch Rank>
573

> <Conf_Id>
0

> <Delta U+W>
0.000

> <U+W>
-58.332

> <U>
8.390

> <W>
-66.722

> <W(PB)>
-68.455

> <W(SA)>
1.733

> <Valence>
6.333

> <Coulomb>
1.215

> <VdW>
0.842

> <VdW6>
-3.344

> <VdW12>
4.186

> <Bond>
0.091

> <Angle>
2.713

> <Pdih>
3.529

> <Idih>
0.000

> <Tether>
0.000

$$$$
VeraChem MOL file


 13 12  0  0  0  0  0  0  0  0999 V2000     
   18.7630   20.6492   21.2277 C   0  0  0  0  0  0  0  0  0  0  0  0
   17.5648   20.4656   21.3050 O   0  5  0  0  0  0  0  0  0  0  0  0
   19.2713   21.4533   20.4725 O   0  0  0  0  0  0  0  0  0  0  0  0
   19.6796   19.8116   22.1130 C   0  0  0  0  0  0  0  0  0  0  0  0
   19.1511   19.6032   23.0512 H   0  0  0  0  0  0  0  0  0  0  0  0
   20.5584   20.4178   22.3647 H   0  0  0  0  0  0  0  0  0  0  0  0
   20.1202   18.4870   21.4443 C   0  0  0  0  0  0  0  0  0  0  0  0
   19.2319   17.8928   21.1878 H   0  0  0  0  0  0  0  0  0  0  0  0
   20.6396   18.7075   20.5012 H   0  0  0  0  0  0  0  0  0  0  0  0
   21.0448   17.6642   22.3638 C   0  0  0  0  0  0  0  0  0  0  0  0
   21.3463   16.7297   21.8728 H   0  0  0  0  0  0  0  0  0  0  0  0
   21.9551   18.2266   22.6103 H   0  0  0  0  0  0  0  0  0  0  0  0
   20.5366   17.4056   23.3021 H   0  0  0  0  0  0  0  0  0  0  0  0
  1  2  1  0  0  0  0
  1  3  2  0  0  0  0
  1  4  1  0  0  0  0
  4  5  1  0  0  0  0
  4  6  1  0  0  0  0
  4  7  1  0  0  0  0
  7  8  1  0  0  0  0
  7  9  1  0  0  0  0
  7 10  1  0  0  0  0
 10 11  1  0  0  0  0
 10 12  1  0  0  0  0
 10 13  1  0  0  0  0
M  END
> <VConfSearch Rank>
574

> <Conf_Id>
1

> <Delta U+W>
-1.339

> <U+W>
-59.672

> <U>
7.389

> <W>
-67.061

> <W(PB)>
-68.767

> <W(SA)>
1.707

> <Valence>
5.822

> <Coulomb>
1.255

> <VdW>
0.312

> <VdW6>
-3.061

> <VdW12>
3.372

> <Bond>
0.059

> <Angle>
2.241

> <Pdih>
3.522

> <Idih>
0.000

> <Tether>
0.000

$$$$
VeraChem MOL file


 13 12  0  0  0  0  0  0  0  0999 V2000     
   21.1440   17.5996   22.5458 C   0  0  0  0  0  0  0  0  0  0  0  0
   20.5757   16.7316   23.1780 O   0  5  0  0  0  0  0  0  0  0  0  0
   22.0008   17.3710   21.7154 O   0  0  0  0  0  0  0  0  0  0  0  0
   20.7862   19.0547   22.8379 C   0  0  0  0  0  0  0  0  0  0  0  0
   21.5818   19.6983   22.4429 H   0  0  0  0  0  0  0  0  0  0  0  0
   20.7893   19.1799   23.9273 H   0  0  0  0  0  0  0  0  0  0  0  0
   19.4120   19.4962   22.2722 C   0  0  0  0  0  0  0  0  0  0  0  0
   18.6280   18.8201   22.6411 H   0  0  0  0  0  0  0  0  0  0  0  0
   19.1705   20.4976   22.6540 H   0  0  0  0  0  0  0  0  0  0  0  0
   19.3906   19.5264   20.7299 C   0  0  0  0  0  0  0  0  0  0  0  0
   19.5849   18.5293   20.3129 H   0  0  0  0  0  0  0  0  0  0  0  0
   18.4117   19.8614   20.3631 H   0  0  0  0  0  0  0  0  0  0  0  0
   20.1527   20.2139   20.3402 H   0  0  0  0  0  0  0  0  0  0  0  0
  1  2  1  0  0  0  0
  1  3  2  0  0  0  0
  1  4  1  0  0  0  0
  4  5  1  0  0  0  0
  4  6  1  0  0  0  0
  4  7  1  0  0  0  0
  7  8  1  0  0  0  0
  7  9  1  0  0  0  0
  7 10  1  0  0  0  0
 10 11  1  0  0  0  0
 10 12  1  0  0  0  0
 10 13  1  0  0  0  0
M  END
> <VConfSearch Rank>
575

> <Conf_Id>
4

> <Delta U+W>
0.281

> <U+W>
-58.051

> <U>
9.781

> <W>
-67.832

> <W(PB)>
-69.535

> <W(SA)>
1.703

> <Valence>
6.123

> <Coulomb>
3.449

> <VdW>
0.209

> <VdW6>
-3.762

> <VdW12>
3.972

> <Bond>
0.078

> <Angle>
2.428

> <Pdih>
3.616

> <Idih>
0.002

> <Tether>
0.000

$$$$
VeraChem MOL file


 13 12  0  0  0  0  0  0  0  0999 V2000     
   20.7628   17.3075   21.8053 C   0  0  0  0  0  0  0  0  0  0  0  0
   21.7115   17.1513   22.5479 O   0  5  0  0  0  0  0  0  0  0  0  0
   19.9440   16.4403   21.5735 O   0  0  0  0  0  0  0  0  0  0  0  0
   20.6090   18.6512   21.0971 C   0  0  0  0  0  0  0  0  0  0  0  0
   20.4240   18.4426   20.0366 H   0  0  0  0  0  0  0  0  0  0  0  0
   21.5635   19.1888   21.1524 H   0  0  0  0  0  0  0  0  0  0  0  0
   19.4649   19.5357   21.6558 C   0  0  0  0  0  0  0  0  0  0  0  0
   19.3289   20.4055   20.9987 H   0  0  0  0  0  0  0  0  0  0  0  0
   18.5211   18.9730   21.6343 H   0  0  0  0  0  0  0  0  0  0  0  0
   19.7458   20.0274   23.0908 C   0  0  0  0  0  0  0  0  0  0  0  0
   20.6744   20.6117   23.1308 H   0  0  0  0  0  0  0  0  0  0  0  0
   18.9273   20.6656   23.4482 H   0  0  0  0  0  0  0  0  0  0  0  0
   19.8438   19.1825   23.7854 H   0  0  0  0  0  0  0  0  0  0  0  0
  1  2  1  0  0  0  0
  1  3  2  0  0  0  0
  1  4  1  0  0  0  0
  4  5  1  0  0  0  0
  4  6  1  0  0  0  0
  4  7  1  0  0  0  0
  7  8  1  0  0  0  0
  7  9  1  0  0  0  0
  7 10  1  0  0  0  0
 10 11  1  0  0  0  0
 10 12  1  0  0  0  0
 10 13  1  0  0  0  0
M  END
> <VConfSearch Rank>
576

> <Conf_Id>
36

> <Delta U+W>
0.272

> <U+W>
-58.060

> <U>
9.781

> <W>
-67.841

> <W(PB)>
-69.537

> <W(SA)>
1.696

> <Valence>
6.123

> <Coulomb>
3.449

> <VdW>
0.209

> <VdW6>
-3.762

> <VdW12>
3.972

> <Bond>
0.078

> <Angle>
2.428

> <Pdih>
3.616

> <Idih>
0.002

> <Tether>
0.000

$$$$
VeraChem MOL file


 13 12  0  0  0  0  0  0  0  0999 V2000     
   20.2915   20.6898   23.0946 C   0  0  0  0  0  0  0  0  0  0  0  0
   19.5207   20.4074   23.9909 O   0  5  0  0  0  0  0  0  0  0  0  0
   20.9571   21.7055   23.0902 O   0  0  0  0  0  0  0  0  0  0  0  0
   20.4529   19.7431   21.9036 C   0  0  0  0  0  0  0  0  0  0  0  0
   21.5130   19.4691   21.8441 H   0  0  0  0  0  0  0  0  0  0  0  0
   20.2183   20.3138   20.9972 H   0  0  0  0  0  0  0  0  0  0  0  0
   19.5834   18.4595   21.9525 C   0  0  0  0  0  0  0  0  0  0  0  0
   19.8180   17.8906   22.8631 H   0  0  0  0  0  0  0  0  0  0  0  0
   18.5217   18.7363   22.0152 H   0  0  0  0  0  0  0  0  0  0  0  0
   19.8122   17.5692   20.7145 C   0  0  0  0  0  0  0  0  0  0  0  0
   20.8615   17.2530   20.6464 H   0  0  0  0  0  0  0  0  0  0  0  0
   19.1891   16.6668   20.7669 H   0  0  0  0  0  0  0  0  0  0  0  0
   19.5549   18.1056   19.7917 H   0  0  0  0  0  0  0  0  0  0  0  0
  1  2  1  0  0  0  0
  1  3  2  0  0  0  0
  1  4  1  0  0  0  0
  4  5  1  0  0  0  0
  4  6  1  0  0  0  0
  4  7  1  0  0  0  0
  7  8  1  0  0  0  0
  7  9  1  0  0  0  0
  7 10  1  0  0  0  0
 10 11  1  0  0  0  0
 10 12  1  0  0  0  0
 10 13  1  0  0  0  0
M  END
> <VConfSearch Rank>
577

> <Conf_Id>
0

> <Delta U+W>
0.000

> <U+W>
-58.332

> <U>
8.390

> <W>
-66.722

> <W(PB)>
-68.455

> <W(SA)>
1.733

> <Valence>
6.333

> <Coulomb>
1.215

> <VdW>
0.842

> <VdW6>
-3.344

> <VdW12>
4.186

> <Bond>
0.091

> <Angle>
2.713

> <Pdih>
3.529

> <Idih>
0.000

> <Tether>
0.000

$$$$
VeraChem MOL file


 13 12  0  0  0  0  0  0  0  0999 V2000     
   18.5437   18.6518   20.3421 C   0  0  0  0  0  0  0  0  0  0  0  0
   17.5501   19.3499   20.3680 O   0  5  0  0  0  0  0  0  0  0  0  0
   18.5724   17.5434   19.8461 O   0  0  0  0  0  0  0  0  0  0  0  0
   19.8190   19.1882   20.9836 C   0  0  0  0  0  0  0  0  0  0  0  0
   19.8323   20.2777   20.8577 H   0  0  0  0  0  0  0  0  0  0  0  0
   20.6754   18.7880   20.4273 H   0  0  0  0  0  0  0  0  0  0  0  0
   19.9405   18.8237   22.4830 C   0  0  0  0  0  0  0  0  0  0  0  0
   19.0728   19.2210   23.0282 H   0  0  0  0  0  0  0  0  0  0  0  0
   19.9162   17.7310   22.5977 H   0  0  0  0  0  0  0  0  0  0  0  0
   21.2388   19.3799   23.1014 C   0  0  0  0  0  0  0  0  0  0  0  0
   21.3069   19.1115   24.1638 H   0  0  0  0  0  0  0  0  0  0  0  0
   22.1222   18.9733   22.5917 H   0  0  0  0  0  0  0  0  0  0  0  0
   21.2724   20.4747   23.0255 H   0  0  0  0  0  0  0  0  0  0  0  0
  1  2  1  0  0  0  0
  1  3  2  0  0  0  0
  1  4  1  0  0  0  0
  4  5  1  0  0  0  0
  4  6  1  0  0  0  0
  4  7  1  0  0  0  0
  7  8  1  0  0  0  0
  7  9  1  0  0  0  0
  7 10  1  0  0  0  0
 10 11  1  0  0  0  0
 10 12  1  0  0  0  0
 10 13  1  0  0  0  0
M  END
> <VConfSearch Rank>
578

> <Conf_Id>
1

> <Delta U+W>
-1.339

> <U+W>
-59.672

> <U>
7.389

> <W>
-67.061

> <W(PB)>
-68.767

> <W(SA)>
1.707

> <Valence>
5.822

> <Coulomb>
1.255

> <VdW>
0.312

> <VdW6>
-3.061

> <VdW12>
3.372

> <Bond>
0.059

> <Angle>
2.241

> <Pdih>
3.522

> <Idih>
0.000

> <Tether>
0.000

$$$$
VeraChem MOL file


 13 12  0  0  0  0  0  0  0  0999 V2000     
   19.4318   17.4408   21.3656 C   0  0  0  0  0  0  0  0  0  0  0  0
   19.9923   16.4188   21.7082 O   0  5  0  0  0  0  0  0  0  0  0  0
   18.2245   17.5463   21.2807 O   0  0  0  0  0  0  0  0  0  0  0  0
   20.2937   18.6431   20.9881 C   0  0  0  0  0  0  0  0  0  0  0  0
   19.6812   19.3475   20.4118 H   0  0  0  0  0  0  0  0  0  0  0  0
   21.0803   18.2830   20.3144 H   0  0  0  0  0  0  0  0  0  0  0  0
   20.9413   19.3646   22.1978 C   0  0  0  0  0  0  0  0  0  0  0  0
   21.5186   18.6417   22.7911 H   0  0  0  0  0  0  0  0  0  0  0  0
   21.6561   20.1132   21.8299 H   0  0  0  0  0  0  0  0  0  0  0  0
   19.8991   20.0620   23.0964 C   0  0  0  0  0  0  0  0  0  0  0  0
   19.1925   19.3351   23.5186 H   0  0  0  0  0  0  0  0  0  0  0  0
   20.3914   20.5786   23.9306 H   0  0  0  0  0  0  0  0  0  0  0  0
   19.3253   20.8054   22.5277 H   0  0  0  0  0  0  0  0  0  0  0  0
  1  2  1  0  0  0  0
  1  3  2  0  0  0  0
  1  4  1  0  0  0  0
  4  5  1  0  0  0  0
  4  6  1  0  0  0  0
  4  7  1  0  0  0  0
  7  8  1  0  0  0  0
  7  9  1  0  0  0  0
  7 10  1  0  0  0  0
 10 11  1  0  0  0  0
 10 12  1  0  0  0  0
 10 13  1  0  0  0  0
M  END
> <VConfSearch Rank>
579

> <Conf_Id>
4

> <Delta U+W>
0.281

> <U+W>
-58.051

> <U>
9.781

> <W>
-67.832

> <W(PB)>
-69.535

> <W(SA)>
1.703

> <Valence>
6.123

> <Coulomb>
3.449

> <VdW>
0.209

> <VdW6>
-3.762

> <VdW12>
3.972

> <Bond>
0.078

> <Angle>
2.428

> <Pdih>
3.616

> <Idih>
0.002

> <Tether>
0.000

$$$$
VeraChem MOL file


 13 12  0  0  0  0  0  0  0  0999 V2000     
   18.6986   18.2351   22.8102 C   0  0  0  0  0  0  0  0  0  0  0  0
   19.0750   17.4317   23.6401 O   0  5  0  0  0  0  0  0  0  0  0  0
   17.7402   18.9645   22.9707 O   0  0  0  0  0  0  0  0  0  0  0  0
   19.4453   18.3090   21.4807 C   0  0  0  0  0  0  0  0  0  0  0  0
   18.6940   18.2903   20.6822 H   0  0  0  0  0  0  0  0  0  0  0  0
   20.0511   17.4017   21.3670 H   0  0  0  0  0  0  0  0  0  0  0  0
   20.3352   19.5685   21.3218 C   0  0  0  0  0  0  0  0  0  0  0  0
   20.7105   19.6162   20.2904 H   0  0  0  0  0  0  0  0  0  0  0  0
   19.7271   20.4705   21.4785 H   0  0  0  0  0  0  0  0  0  0  0  0
   21.5326   19.5719   22.2945 C   0  0  0  0  0  0  0  0  0  0  0  0
   22.1665   18.6890   22.1395 H   0  0  0  0  0  0  0  0  0  0  0  0
   22.1518   20.4655   22.1426 H   0  0  0  0  0  0  0  0  0  0  0  0
   21.1928   19.5694   23.3387 H   0  0  0  0  0  0  0  0  0  0  0  0
  1  2  1  0  0  0  0
  1  3  2  0  0  0  0
  1  4  1  0  0  0  0
  4  5  1  0  0  0  0
  4  6  1  0  0  0  0
  4  7  1  0  0  0  0
  7  8  1  0  0  0  0
  7  9  1  0  0  0  0
  7 10  1  0  0  0  0
 10 11  1  0  0  0  0
 10 12  1  0  0  0  0
 10 13  1  0  0  0  0
M  END
> <VConfSearch Rank>
580

> <Conf_Id>
36

> <Delta U+W>
0.272

> <U+W>
-58.060

> <U>
9.781

> <W>
-67.841

> <W(PB)>
-69.537

> <W(SA)>
1.696

> <Valence>
6.123

> <Coulomb>
3.449

> <VdW>
0.209

> <VdW6>
-3.762

> <VdW12>
3.972

> <Bond>
0.078

> <Angle>
2.428

> <Pdih>
3.616

> <Idih>
0.002

> <Tether>
0.000

$$$$
VeraChem MOL file


 13 12  0  0  0  0  0  0  0  0999 V2000     
   18.8560   19.0117   23.6059 C   0  0  0  0  0  0  0  0  0  0  0  0
   18.6585   20.2050   23.7258 O   0  5  0  0  0  0  0  0  0  0  0  0
   18.4271   18.1884   24.3889 O   0  0  0  0  0  0  0  0  0  0  0  0
   19.6787   18.4916   22.4255 C   0  0  0  0  0  0  0  0  0  0  0  0
   19.0515   17.7782   21.8778 H   0  0  0  0  0  0  0  0  0  0  0  0
   20.5222   17.9255   22.8382 H   0  0  0  0  0  0  0  0  0  0  0  0
   20.2053   19.5787   21.4524 C   0  0  0  0  0  0  0  0  0  0  0  0
   19.3587   20.1468   21.0422 H   0  0  0  0  0  0  0  0  0  0  0  0
   20.8312   20.2943   22.0038 H   0  0  0  0  0  0  0  0  0  0  0  0
   21.0210   18.9627   20.2978 C   0  0  0  0  0  0  0  0  0  0  0  0
   20.4076   18.2659   19.7115 H   0  0  0  0  0  0  0  0  0  0  0  0
   21.3848   19.7463   19.6205 H   0  0  0  0  0  0  0  0  0  0  0  0
   21.8918   18.4145   20.6807 H   0  0  0  0  0  0  0  0  0  0  0  0
  1  2  1  0  0  0  0
  1  3  2  0  0  0  0
  1  4  1  0  0  0  0
  4  5  1  0  0  0  0
  4  6  1  0  0  0  0
  4  7  1  0  0  0  0
  7  8  1  0  0  0  0
  7  9  1  0  0  0  0
  7 10  1  0  0  0  0
 10 11  1  0  0  0  0
 10 12  1  0  0  0  0
 10 13  1  0  0  0  0
M  END
> <VConfSearch Rank>
581

> <Conf_Id>
0

> <Delta U+W>
0.000

> <U+W>
-58.332

> <U>
8.390

> <W>
-66.722

> <W(PB)>
-68.455

> <W(SA)>
1.733

> <Valence>
6.333

> <Coulomb>
1.215

> <VdW>
0.842

> <VdW6>
-3.344

> <VdW12>
4.186

> <Bond>
0.091

> <Angle>
2.713

> <Pdih>
3.529

> <Idih>
0.000

> <Tether>
0.000

$$$$
VeraChem MOL file


 13 12  0  0  0  0  0  0  0  0999 V2000     
   20.9742   17.3408   22.6098 C   0  0  0  0  0  0  0  0  0  0  0  0
   22.1883   17.3708   22.5874 O   0  5  0  0  0  0  0  0  0  0  0  0
   20.3286   16.3122   22.6299 O   0  0  0  0  0  0  0  0  0  0  0  0
   20.2195   18.6659   22.5925 C   0  0  0  0  0  0  0  0  0  0  0  0
   20.8238   19.4099   23.1257 H   0  0  0  0  0  0  0  0  0  0  0  0
   19.2902   18.5369   23.1607 H   0  0  0  0  0  0  0  0  0  0  0  0
   19.9039   19.1628   21.1610 C   0  0  0  0  0  0  0  0  0  0  0  0
   20.8409   19.2788   20.5984 H   0  0  0  0  0  0  0  0  0  0  0  0
   19.3069   18.4057   20.6335 H   0  0  0  0  0  0  0  0  0  0  0  0
   19.1415   20.5029   21.1779 C   0  0  0  0  0  0  0  0  0  0  0  0
   18.9270   20.8387   20.1549 H   0  0  0  0  0  0  0  0  0  0  0  0
   18.1861   20.4045   21.7098 H   0  0  0  0  0  0  0  0  0  0  0  0
   19.7318   21.2843   21.6744 H   0  0  0  0  0  0  0  0  0  0  0  0
  1  2  1  0  0  0  0
  1  3  2  0  0  0  0
  1  4  1  0  0  0  0
  4  5  1  0  0  0  0
  4  6  1  0  0  0  0
  4  7  1  0  0  0  0
  7  8  1  0  0  0  0
  7  9  1  0  0  0  0
  7 10  1  0  0  0  0
 10 11  1  0  0  0  0
 10 12  1  0  0  0  0
 10 13  1  0  0  0  0
M  END
> <VConfSearch Rank>
582

> <Conf_Id>
1

> <Delta U+W>
-1.339

> <U+W>
-59.672

> <U>
7.389

> <W>
-67.061

> <W(PB)>
-68.767

> <W(SA)>
1.707

> <Valence>
5.822

> <Coulomb>
1.255

> <VdW>
0.312

> <VdW6>
-3.061

> <VdW12>
3.372

> <Bond>
0.059

> <Angle>
2.241

> <Pdih>
3.522

> <Idih>
0.000

> <Tether>
0.000

$$$$
VeraChem MOL file


 13 12  0  0  0  0  0  0  0  0999 V2000     
   21.4449   19.8494   22.8288 C   0  0  0  0  0  0  0  0  0  0  0  0
   22.2641   20.3856   22.1094 O   0  5  0  0  0  0  0  0  0  0  0  0
   21.0187   20.3523   23.8492 O   0  0  0  0  0  0  0  0  0  0  0  0
   20.9539   18.4552   22.4468 C   0  0  0  0  0  0  0  0  0  0  0  0
   20.4911   17.9922   23.3269 H   0  0  0  0  0  0  0  0  0  0  0  0
   21.8369   17.8537   22.2001 H   0  0  0  0  0  0  0  0  0  0  0  0
   19.9664   18.4355   21.2518 C   0  0  0  0  0  0  0  0  0  0  0  0
   20.4241   18.9381   20.3882 H   0  0  0  0  0  0  0  0  0  0  0  0
   19.7856   17.3943   20.9516 H   0  0  0  0  0  0  0  0  0  0  0  0
   18.6178   19.1041   21.5893 C   0  0  0  0  0  0  0  0  0  0  0  0
   18.7562   20.1614   21.8519 H   0  0  0  0  0  0  0  0  0  0  0  0
   17.9362   19.0556   20.7301 H   0  0  0  0  0  0  0  0  0  0  0  0
   18.1323   18.6025   22.4367 H   0  0  0  0  0  0  0  0  0  0  0  0
  1  2  1  0  0  0  0
  1  3  2  0  0  0  0
  1  4  1  0  0  0  0
  4  5  1  0  0  0  0
  4  6  1  0  0  0  0
  4  7  1  0  0  0  0
  7  8  1  0  0  0  0
  7  9  1  0  0  0  0
  7 10  1  0  0  0  0
 10 11  1  0  0  0  0
 10 12  1  0  0  0  0
 10 13  1  0  0  0  0
M  END
> <VConfSearch Rank>
583

> <Conf_Id>
4

> <Delta U+W>
0.281

> <U+W>
-58.051

> <U>
9.781

> <W>
-67.832

> <W(PB)>
-69.535

> <W(SA)>
1.703

> <Valence>
6.123

> <Coulomb>
3.449

> <VdW>
0.209

> <VdW6>
-3.762

> <VdW12>
3.972

> <Bond>
0.078

> <Angle>
2.428

> <Pdih>
3.616

> <Idih>
0.002

> <Tether>
0.000

$$$$
VeraChem MOL file


 13 12  0  0  0  0  0  0  0  0999 V2000     
   21.6880   18.4598   21.3005 C   0  0  0  0  0  0  0  0  0  0  0  0
   21.7480   18.8036   20.1368 O   0  5  0  0  0  0  0  0  0  0  0  0
   22.6391   18.4848   22.0560 O   0  0  0  0  0  0  0  0  0  0  0  0
   20.3575   17.9348   21.8344 C   0  0  0  0  0  0  0  0  0  0  0  0
   20.5655   17.0001   22.3686 H   0  0  0  0  0  0  0  0  0  0  0  0
   19.7146   17.6771   20.9838 H   0  0  0  0  0  0  0  0  0  0  0  0
   19.6217   18.9171   22.7815 C   0  0  0  0  0  0  0  0  0  0  0  0
   18.7609   18.4051   23.2328 H   0  0  0  0  0  0  0  0  0  0  0  0
   20.2889   19.2009   23.6074 H   0  0  0  0  0  0  0  0  0  0  0  0
   19.1287   20.1835   22.0513 C   0  0  0  0  0  0  0  0  0  0  0  0
   18.4421   19.9236   21.2350 H   0  0  0  0  0  0  0  0  0  0  0  0
   18.5961   20.8472   22.7448 H   0  0  0  0  0  0  0  0  0  0  0  0
   19.9699   20.7455   21.6242 H   0  0  0  0  0  0  0  0  0  0  0  0
  1  2  1  0  0  0  0
  1  3  2  0  0  0  0
  1  4  1  0  0  0  0
  4  5  1  0  0  0  0
  4  6  1  0  0  0  0
  4  7  1  0  0  0  0
  7  8  1  0  0  0  0
  7  9  1  0  0  0  0
  7 10  1  0  0  0  0
 10 11  1  0  0  0  0
 10 12  1  0  0  0  0
 10 13  1  0  0  0  0
M  END
> <VConfSearch Rank>
584

> <Conf_Id>
36

> <Delta U+W>
0.272

> <U+W>
-58.060

> <U>
9.781

> <W>
-67.841

> <W(PB)>
-69.537

> <W(SA)>
1.696

> <Valence>
6.123

> <Coulomb>
3.449

> <VdW>
0.209

> <VdW6>
-3.762

> <VdW12>
3.972

> <Bond>
0.078

> <Angle>
2.428

> <Pdih>
3.616

> <Idih>
0.002

> <Tether>
0.000

$$$$
VeraChem MOL file


 13 12  0  0  0  0  0  0  0  0999 V2000     
   19.6151   21.0937   21.8504 C   0  0  0  0  0  0  0  0  0  0  0  0
   18.4331   21.0782   22.1329 O   0  5  0  0  0  0  0  0  0  0  0  0
   20.2381   22.1202   21.6684 O   0  0  0  0  0  0  0  0  0  0  0  0
   20.3811   19.7768   21.7102 C   0  0  0  0  0  0  0  0  0  0  0  0
   21.2202   19.8091   22.4153 H   0  0  0  0  0  0  0  0  0  0  0  0
   20.8110   19.7536   20.7017 H   0  0  0  0  0  0  0  0  0  0  0  0
   19.5450   18.4928   21.9514 C   0  0  0  0  0  0  0  0  0  0  0  0
   19.1127   18.5195   22.9614 H   0  0  0  0  0  0  0  0  0  0  0  0
   18.7029   18.4640   21.2458 H   0  0  0  0  0  0  0  0  0  0  0  0
   20.3982   17.2187   21.7889 C   0  0  0  0  0  0  0  0  0  0  0  0
   21.2300   17.2088   22.5055 H   0  0  0  0  0  0  0  0  0  0  0  0
   19.7900   16.3215   21.9631 H   0  0  0  0  0  0  0  0  0  0  0  0
   20.8170   17.1528   20.7761 H   0  0  0  0  0  0  0  0  0  0  0  0
  1  2  1  0  0  0  0
  1  3  2  0  0  0  0
  1  4  1  0  0  0  0
  4  5  1  0  0  0  0
  4  6  1  0  0  0  0
  4  7  1  0  0  0  0
  7  8  1  0  0  0  0
  7  9  1  0  0  0  0
  7 10  1  0  0  0  0
 10 11  1  0  0  0  0
 10 12  1  0  0  0  0
 10 13  1  0  0  0  0
M  END
> <VConfSearch Rank>
585

> <Conf_Id>
0

> <Delta U+W>
0.000

> <U+W>
-58.332

> <U>
8.390

> <W>
-66.722

> <W(PB)>
-68.455

> <W(SA)>
1.733

> <Valence>
6.333

> <Coulomb>
1.215

> <VdW>
0.842

> <VdW6>
-3.344

> <VdW12>
4.186

> <Bond>
0.091

> <Angle>
2.713

> <Pdih>
3.529

> <Idih>
0.000

> <Tether>
0.000

$$$$
VeraChem MOL file


 13 12  0  0  0  0  0  0  0  0999 V2000     
   17.9145   18.7325   21.5861 C   0  0  0  0  0  0  0  0  0  0  0  0
   17.2679   18.6128   22.6074 O   0  5  0  0  0  0  0  0  0  0  0  0
   17.5650   18.2814   20.5138 O   0  0  0  0  0  0  0  0  0  0  0  0
   19.2458   19.4727   21.6579 C   0  0  0  0  0  0  0  0  0  0  0  0
   19.1620   20.2523   22.4249 H   0  0  0  0  0  0  0  0  0  0  0  0
   19.4070   19.9791   20.6984 H   0  0  0  0  0  0  0  0  0  0  0  0
   20.4395   18.5397   21.9749 C   0  0  0  0  0  0  0  0  0  0  0  0
   20.2625   18.0307   22.9327 H   0  0  0  0  0  0  0  0  0  0  0  0
   20.5076   17.7575   21.2059 H   0  0  0  0  0  0  0  0  0  0  0  0
   21.7691   19.3176   22.0406 C   0  0  0  0  0  0  0  0  0  0  0  0
   22.6028   18.6398   22.2662 H   0  0  0  0  0  0  0  0  0  0  0  0
   21.9830   19.8113   21.0836 H   0  0  0  0  0  0  0  0  0  0  0  0
   21.7360   20.0866   22.8236 H   0  0  0  0  0  0  0  0  0  0  0  0
  1  2  1  0  0  0  0
  1  3  2  0  0  0  0
  1  4  1  0  0  0  0
  4  5  1  0  0  0  0
  4  6  1  0  0  0  0
  4  7  1  0  0  0  0
  7  8  1  0  0  0  0
  7  9  1  0  0  0  0
  7 10  1  0  0  0  0
 10 11  1  0  0  0  0
 10 12  1  0  0  0  0
 10 13  1  0  0  0  0
M  END
> <VConfSearch Rank>
586

> <Conf_Id>
1

> <Delta U+W>
-1.339

> <U+W>
-59.672

> <U>
7.389

> <W>
-67.061

> <W(PB)>
-68.767

> <W(SA)>
1.707

> <Valence>
5.822

> <Coulomb>
1.255

> <VdW>
0.312

> <VdW6>
-3.061

> <VdW12>
3.372

> <Bond>
0.059

> <Angle>
2.241

> <Pdih>
3.522

> <Idih>
0.000

> <Tether>
0.000

$$$$
VeraChem MOL file


 13 12  0  0  0  0  0  0  0  0999 V2000     
   20.4426   18.3953   23.6651 C   0  0  0  0  0  0  0  0  0  0  0  0
   21.3728   18.9227   24.2419 O   0  5  0  0  0  0  0  0  0  0  0  0
   19.3917   18.1145   24.2061 O   0  0  0  0  0  0  0  0  0  0  0  0
   20.6194   18.0353   22.1920 C   0  0  0  0  0  0  0  0  0  0  0  0
   19.8515   17.3026   21.9147 H   0  0  0  0  0  0  0  0  0  0  0  0
   21.5883   17.5316   22.0925 H   0  0  0  0  0  0  0  0  0  0  0  0
   20.5692   19.2508   21.2312 C   0  0  0  0  0  0  0  0  0  0  0  0
   21.3139   19.9967   21.5426 H   0  0  0  0  0  0  0  0  0  0  0  0
   20.8534   18.9236   20.2217 H   0  0  0  0  0  0  0  0  0  0  0  0
   19.1717   19.9018   21.1751 C   0  0  0  0  0  0  0  0  0  0  0  0
   18.8733   20.2814   22.1614 H   0  0  0  0  0  0  0  0  0  0  0  0
   19.1657   20.7451   20.4723 H   0  0  0  0  0  0  0  0  0  0  0  0
   18.4149   19.1785   20.8442 H   0  0  0  0  0  0  0  0  0  0  0  0
  1  2  1  0  0  0  0
  1  3  2  0  0  0  0
  1  4  1  0  0  0  0
  4  5  1  0  0  0  0
  4  6  1  0  0  0  0
  4  7  1  0  0  0  0
  7  8  1  0  0  0  0
  7  9  1  0  0  0  0
  7 10  1  0  0  0  0
 10 11  1  0  0  0  0
 10 12  1  0  0  0  0
 10 13  1  0  0  0  0
M  END
> <VConfSearch Rank>
587

> <Conf_Id>
4

> <Delta U+W>
0.281

> <U+W>
-58.051

> <U>
9.781

> <W>
-67.832

> <W(PB)>
-69.535

> <W(SA)>
1.703

> <Valence>
6.123

> <Coulomb>
3.449

> <VdW>
0.209

> <VdW6>
-3.762

> <VdW12>
3.972

> <Bond>
0.078

> <Angle>
2.428

> <Pdih>
3.616

> <Idih>
0.002

> <Tether>
0.000

$$$$
VeraChem MOL file


 13 12  0  0  0  0  0  0  0  0999 V2000     
   21.4158   18.9464   23.2310 C   0  0  0  0  0  0  0  0  0  0  0  0
   20.9255   18.8291   24.3363 O   0  5  0  0  0  0  0  0  0  0  0  0
   22.4568   18.4143   22.9003 O   0  0  0  0  0  0  0  0  0  0  0  0
   20.7074   19.8374   22.2136 C   0  0  0  0  0  0  0  0  0  0  0  0
   21.4636   20.5012   21.7777 H   0  0  0  0  0  0  0  0  0  0  0  0
   19.9924   20.4776   22.7448 H   0  0  0  0  0  0  0  0  0  0  0  0
   19.9891   19.0602   21.0808 C   0  0  0  0  0  0  0  0  0  0  0  0
   19.6405   19.7725   20.3206 H   0  0  0  0  0  0  0  0  0  0  0  0
   20.7049   18.3916   20.5823 H   0  0  0  0  0  0  0  0  0  0  0  0
   18.7856   18.2440   21.5960 C   0  0  0  0  0  0  0  0  0  0  0  0
   18.0465   18.8968   22.0787 H   0  0  0  0  0  0  0  0  0  0  0  0
   18.2886   17.7227   20.7675 H   0  0  0  0  0  0  0  0  0  0  0  0
   19.1044   17.4896   22.3275 H   0  0  0  0  0  0  0  0  0  0  0  0
  1  2  1  0  0  0  0
  1  3  2  0  0  0  0
  1  4  1  0  0  0  0
  4  5  1  0  0  0  0
  4  6  1  0  0  0  0
  4  7  1  0  0  0  0
  7  8  1  0  0  0  0
  7  9  1  0  0  0  0
  7 10  1  0  0  0  0
 10 11  1  0  0  0  0
 10 12  1  0  0  0  0
 10 13  1  0  0  0  0
M  END
> <VConfSearch Rank>
588

> <Conf_Id>
36

> <Delta U+W>
0.272

> <U+W>
-58.060

> <U>
9.781

> <W>
-67.841

> <W(PB)>
-69.537

> <W(SA)>
1.696

> <Valence>
6.123

> <Coulomb>
3.449

> <VdW>
0.209

> <VdW6>
-3.762

> <VdW12>
3.972

> <Bond>
0.078

> <Angle>
2.428

> <Pdih>
3.616

> <Idih>
0.002

> <Tether>
0.000

$$$$
VeraChem MOL file


 13 12  0  0  0  0  0  0  0  0999 V2000     
   21.0164   17.4152   22.8436 C   0  0  0  0  0  0  0  0  0  0  0  0
   20.1144   17.0213   23.5567 O   0  5  0  0  0  0  0  0  0  0  0  0
   22.1250   16.9194   22.8449 O   0  0  0  0  0  0  0  0  0  0  0  0
   20.7758   18.5873   21.8902 C   0  0  0  0  0  0  0  0  0  0  0  0
   21.0064   18.2380   20.8767 H   0  0  0  0  0  0  0  0  0  0  0  0
   21.5090   19.3650   22.1354 H   0  0  0  0  0  0  0  0  0  0  0  0
   19.3462   19.1880   21.9232 C   0  0  0  0  0  0  0  0  0  0  0  0
   18.6128   18.4064   21.6801 H   0  0  0  0  0  0  0  0  0  0  0  0
   19.1160   19.5347   22.9404 H   0  0  0  0  0  0  0  0  0  0  0  0
   19.1981   20.3605   20.9327 C   0  0  0  0  0  0  0  0  0  0  0  0
   19.3930   20.0322   19.9032 H   0  0  0  0  0  0  0  0  0  0  0  0
   18.1811   20.7721   20.9702 H   0  0  0  0  0  0  0  0  0  0  0  0
   19.9003   21.1695   21.1736 H   0  0  0  0  0  0  0  0  0  0  0  0
  1  2  1  0  0  0  0
  1  3  2  0  0  0  0
  1  4  1  0  0  0  0
  4  5  1  0  0  0  0
  4  6  1  0  0  0  0
  4  7  1  0  0  0  0
  7  8  1  0  0  0  0
  7  9  1  0  0  0  0
  7 10  1  0  0  0  0
 10 11  1  0  0  0  0
 10 12  1  0  0  0  0
 10 13  1  0  0  0  0
M  END
> <VConfSearch Rank>
589

> <Conf_Id>
0

> <Delta U+W>
0.000

> <U+W>
-58.332

> <U>
8.390

> <W>
-66.722

> <W(PB)>
-68.455

> <W(SA)>
1.733

> <Valence>
6.333

> <Coulomb>
1.215

> <VdW>
0.842

> <VdW6>
-3.344

> <VdW12>
4.186

> <Bond>
0.091

> <Angle>
2.713

> <Pdih>
3.529

> <Idih>
0.000

> <Tether>
0.000

$$$$
VeraChem MOL file


 13 12  0  0  0  0  0  0  0  0999 V2000     
   19.8184   20.7769   20.6435 C   0  0  0  0  0  0  0  0  0  0  0  0
   20.8199   21.1152   20.0453 O   0  5  0  0  0  0  0  0  0  0  0  0
   18.9251   21.5432   20.9437 O   0  0  0  0  0  0  0  0  0  0  0  0
   19.6839   19.3151   21.0563 C   0  0  0  0  0  0  0  0  0  0  0  0
   20.1819   18.6989   20.2978 H   0  0  0  0  0  0  0  0  0  0  0  0
   18.6193   19.0519   21.0386 H   0  0  0  0  0  0  0  0  0  0  0  0
   20.2812   19.0247   22.4545 C   0  0  0  0  0  0  0  0  0  0  0  0
   21.3448   19.3013   22.4633 H   0  0  0  0  0  0  0  0  0  0  0  0
   19.7818   19.6542   23.2042 H   0  0  0  0  0  0  0  0  0  0  0  0
   20.1296   17.5401   22.8420 C   0  0  0  0  0  0  0  0  0  0  0  0
   20.5585   17.3539   23.8353 H   0  0  0  0  0  0  0  0  0  0  0  0
   19.0717   17.2472   22.8692 H   0  0  0  0  0  0  0  0  0  0  0  0
   20.6468   16.8916   22.1225 H   0  0  0  0  0  0  0  0  0  0  0  0
  1  2  1  0  0  0  0
  1  3  2  0  0  0  0
  1  4  1  0  0  0  0
  4  5  1  0  0  0  0
  4  6  1  0  0  0  0
  4  7  1  0  0  0  0
  7  8  1  0  0  0  0
  7  9  1  0  0  0  0
  7 10  1  0  0  0  0
 10 11  1  0  0  0  0
 10 12  1  0  0  0  0
 10 13  1  0  0  0  0
M  END
> <VConfSearch Rank>
590

> <Conf_Id>
1

> <Delta U+W>
-1.339

> <U+W>
-59.672

> <U>
7.389

> <W>
-67.061

> <W(PB)>
-68.767

> <W(SA)>
1.707

> <Valence>
5.822

> <Coulomb>
1.255

> <VdW>
0.312

> <VdW6>
-3.061

> <VdW12>
3.372

> <Bond>
0.059

> <Angle>
2.241

> <Pdih>
3.522

> <Idih>
0.000

> <Tether>
0.000

$$$$
VeraChem MOL file


 13 12  0  0  0  0  0  0  0  0999 V2000     
   18.3929   18.5104   22.0184 C   0  0  0  0  0  0  0  0  0  0  0  0
   18.0457   17.6968   21.1856 O   0  5  0  0  0  0  0  0  0  0  0  0
   17.9851   18.5128   23.1628 O   0  0  0  0  0  0  0  0  0  0  0  0
   19.3649   19.6077   21.5920 C   0  0  0  0  0  0  0  0  0  0  0  0
   19.3257   20.4182   22.3301 H   0  0  0  0  0  0  0  0  0  0  0  0
   18.9957   20.0224   20.6465 H   0  0  0  0  0  0  0  0  0  0  0  0
   20.8263   19.1242   21.4072 C   0  0  0  0  0  0  0  0  0  0  0  0
   20.8491   18.2853   20.6974 H   0  0  0  0  0  0  0  0  0  0  0  0
   21.4190   19.9332   20.9588 H   0  0  0  0  0  0  0  0  0  0  0  0
   21.4801   18.6985   22.7381 C   0  0  0  0  0  0  0  0  0  0  0  0
   20.9377   17.8595   23.1937 H   0  0  0  0  0  0  0  0  0  0  0  0
   22.5183   18.3812   22.5749 H   0  0  0  0  0  0  0  0  0  0  0  0
   21.4878   19.5299   23.4551 H   0  0  0  0  0  0  0  0  0  0  0  0
  1  2  1  0  0  0  0
  1  3  2  0  0  0  0
  1  4  1  0  0  0  0
  4  5  1  0  0  0  0
  4  6  1  0  0  0  0
  4  7  1  0  0  0  0
  7  8  1  0  0  0  0
  7  9  1  0  0  0  0
  7 10  1  0  0  0  0
 10 11  1  0  0  0  0
 10 12  1  0  0  0  0
 10 13  1  0  0  0  0
M  END
> <VConfSearch Rank>
591

> <Conf_Id>
4

> <Delta U+W>
0.281

> <U+W>
-58.051

> <U>
9.781

> <W>
-67.832

> <W(PB)>
-69.535

> <W(SA)>
1.703

> <Valence>
6.123

> <Coulomb>
3.449

> <VdW>
0.209

> <VdW6>
-3.762

> <VdW12>
3.972

> <Bond>
0.078

> <Angle>
2.428

> <Pdih>
3.616

> <Idih>
0.002

> <Tether>
0.000

$$$$
VeraChem MOL file


 13 12  0  0  0  0  0  0  0  0999 V2000     
   18.7025   20.0488   22.2008 C   0  0  0  0  0  0  0  0  0  0  0  0
   17.8467   19.4815   22.8501 O   0  5  0  0  0  0  0  0  0  0  0  0
   18.9480   21.2340   22.3071 O   0  0  0  0  0  0  0  0  0  0  0  0
   19.4877   19.2401   21.1712 C   0  0  0  0  0  0  0  0  0  0  0  0
   19.4860   19.8121   20.2357 H   0  0  0  0  0  0  0  0  0  0  0  0
   18.9480   18.3060   20.9723 H   0  0  0  0  0  0  0  0  0  0  0  0
   20.9498   18.9340   21.5856 C   0  0  0  0  0  0  0  0  0  0  0  0
   21.4794   18.4868   20.7333 H   0  0  0  0  0  0  0  0  0  0  0  0
   21.4692   19.8732   21.8225 H   0  0  0  0  0  0  0  0  0  0  0  0
   21.0334   17.9743   22.7905 C   0  0  0  0  0  0  0  0  0  0  0  0
   20.5391   17.0197   22.5669 H   0  0  0  0  0  0  0  0  0  0  0  0
   22.0801   17.7632   23.0452 H   0  0  0  0  0  0  0  0  0  0  0  0
   20.5511   18.4094   23.6759 H   0  0  0  0  0  0  0  0  0  0  0  0
  1  2  1  0  0  0  0
  1  3  2  0  0  0  0
  1  4  1  0  0  0  0
  4  5  1  0  0  0  0
  4  6  1  0  0  0  0
  4  7  1  0  0  0  0
  7  8  1  0  0  0  0
  7  9  1  0  0  0  0
  7 10  1  0  0  0  0
 10 11  1  0  0  0  0
 10 12  1  0  0  0  0
 10 13  1  0  0  0  0
M  END
> <VConfSearch Rank>
592

> <Conf_Id>
36

> <Delta U+W>
0.272

> <U+W>
-58.060

> <U>
9.781

> <W>
-67.841

> <W(PB)>
-69.537

> <W(SA)>
1.696

> <Valence>
6.123

> <Coulomb>
3.449

> <VdW>
0.209

> <VdW6>
-3.762

> <VdW12>
3.972

> <Bond>
0.078

> <Angle>
2.428

> <Pdih>
3.616

> <Idih>
0.002

> <Tether>
0.000

$$$$
VeraChem MOL file


 13 12  0  0  0  0  0  0  0  0999 V2000     
   21.2680   17.4485   21.0545 C   0  0  0  0  0  0  0  0  0  0  0  0
   21.3663   16.7455   22.0412 O   0  5  0  0  0  0  0  0  0  0  0  0
   21.8042   17.1835   19.9976 O   0  0  0  0  0  0  0  0  0  0  0  0
   20.4382   18.7324   21.1149 C   0  0  0  0  0  0  0  0  0  0  0  0
   19.6682   18.6619   20.3375 H   0  0  0  0  0  0  0  0  0  0  0  0
   21.0985   19.5627   20.8372 H   0  0  0  0  0  0  0  0  0  0  0  0
   19.7727   19.0297   22.4841 C   0  0  0  0  0  0  0  0  0  0  0  0
   19.1137   18.1952   22.7619 H   0  0  0  0  0  0  0  0  0  0  0  0
   20.5458   19.0971   23.2622 H   0  0  0  0  0  0  0  0  0  0  0  0
   18.9597   20.3396   22.4497 C   0  0  0  0  0  0  0  0  0  0  0  0
   18.1594   20.2858   21.6999 H   0  0  0  0  0  0  0  0  0  0  0  0
   18.4968   20.5329   23.4262 H   0  0  0  0  0  0  0  0  0  0  0  0
   19.6030   21.1949   22.2042 H   0  0  0  0  0  0  0  0  0  0  0  0
  1  2  1  0  0  0  0
  1  3  2  0  0  0  0
  1  4  1  0  0  0  0
  4  5  1  0  0  0  0
  4  6  1  0  0  0  0
  4  7  1  0  0  0  0
  7  8  1  0  0  0  0
  7  9  1  0  0  0  0
  7 10  1  0  0  0  0
 10 11  1  0  0  0  0
 10 12  1  0  0  0  0
 10 13  1  0  0  0  0
M  END
> <VConfSearch Rank>
593

> <Conf_Id>
0

> <Delta U+W>
0.000

> <U+W>
-58.332

> <U>
8.390

> <W>
-66.722

> <W(PB)>
-68.455

> <W(SA)>
1.733

> <Valence>
6.333

> <Coulomb>
1.215

> <VdW>
0.842

> <VdW6>
-3.344

> <VdW12>
4.186

> <Bond>
0.091

> <Angle>
2.713

> <Pdih>
3.529

> <Idih>
0.000

> <Tether>
0.000

$$$$
VeraChem MOL file


 13 12  0  0  0  0  0  0  0  0999 V2000     
   20.0287   20.7767   20.6316 C   0  0  0  0  0  0  0  0  0  0  0  0
   20.6935   20.7097   19.6173 O   0  5  0  0  0  0  0  0  0  0  0  0
   19.7672   21.8207   21.1948 O   0  0  0  0  0  0  0  0  0  0  0  0
   19.5105   19.4787   21.2415 C   0  0  0  0  0  0  0  0  0  0  0  0
   19.3132   18.7729   20.4254 H   0  0  0  0  0  0  0  0  0  0  0  0
   18.5493   19.6891   21.7263 H   0  0  0  0  0  0  0  0  0  0  0  0
   20.4950   18.8541   22.2595 C   0  0  0  0  0  0  0  0  0  0  0  0
   21.4568   18.6569   21.7656 H   0  0  0  0  0  0  0  0  0  0  0  0
   20.6926   19.5732   23.0668 H   0  0  0  0  0  0  0  0  0  0  0  0
   19.9424   17.5446   22.8572 C   0  0  0  0  0  0  0  0  0  0  0  0
   20.6538   17.1172   23.5759 H   0  0  0  0  0  0  0  0  0  0  0  0
   18.9948   17.7218   23.3826 H   0  0  0  0  0  0  0  0  0  0  0  0
   19.7648   16.7985   22.0715 H   0  0  0  0  0  0  0  0  0  0  0  0
  1  2  1  0  0  0  0
  1  3  2  0  0  0  0
  1  4  1  0  0  0  0
  4  5  1  0  0  0  0
  4  6  1  0  0  0  0
  4  7  1  0  0  0  0
  7  8  1  0  0  0  0
  7  9  1  0  0  0  0
  7 10  1  0  0  0  0
 10 11  1  0  0  0  0
 10 12  1  0  0  0  0
 10 13  1  0  0  0  0
M  END
> <VConfSearch Rank>
594

> <Conf_Id>
1

> <Delta U+W>
-1.339

> <U+W>
-59.672

> <U>
7.389

> <W>
-67.061

> <W(PB)>
-68.767

> <W(SA)>
1.707

> <Valence>
5.822

> <Coulomb>
1.255

> <VdW>
0.312

> <VdW6>
-3.061

> <VdW12>
3.372

> <Bond>
0.059

> <Angle>
2.241

> <Pdih>
3.522

> <Idih>
0.000

> <Tether>
0.000

$$$$
VeraChem MOL file


 13 12  0  0  0  0  0  0  0  0999 V2000     
   21.2248   19.1666   20.5962 C   0  0  0  0  0  0  0  0  0  0  0  0
   22.2292   19.8205   20.7953 O   0  5  0  0  0  0  0  0  0  0  0  0
   21.2051   18.1596   19.9168 O   0  0  0  0  0  0  0  0  0  0  0  0
   19.9131   19.6581   21.2033 C   0  0  0  0  0  0  0  0  0  0  0  0
   19.0802   19.1677   20.6847 H   0  0  0  0  0  0  0  0  0  0  0  0
   19.8339   20.7301   20.9865 H   0  0  0  0  0  0  0  0  0  0  0  0
   19.7974   19.4316   22.7326 C   0  0  0  0  0  0  0  0  0  0  0  0
   20.6580   19.8912   23.2386 H   0  0  0  0  0  0  0  0  0  0  0  0
   18.9008   19.9450   23.1057 H   0  0  0  0  0  0  0  0  0  0  0  0
   19.7127   17.9364   23.1032 C   0  0  0  0  0  0  0  0  0  0  0  0
   20.6154   17.3989   22.7836 H   0  0  0  0  0  0  0  0  0  0  0  0
   19.6119   17.8122   24.1892 H   0  0  0  0  0  0  0  0  0  0  0  0
   18.8456   17.4621   22.6251 H   0  0  0  0  0  0  0  0  0  0  0  0
  1  2  1  0  0  0  0
  1  3  2  0  0  0  0
  1  4  1  0  0  0  0
  4  5  1  0  0  0  0
  4  6  1  0  0  0  0
  4  7  1  0  0  0  0
  7  8  1  0  0  0  0
  7  9  1  0  0  0  0
  7 10  1  0  0  0  0
 10 11  1  0  0  0  0
 10 12  1  0  0  0  0
 10 13  1  0  0  0  0
M  END
> <VConfSearch Rank>
595

> <Conf_Id>
4

> <Delta U+W>
0.281

> <U+W>
-58.051

> <U>
9.781

> <W>
-67.832

> <W(PB)>
-69.535

> <W(SA)>
1.703

> <Valence>
6.123

> <Coulomb>
3.449

> <VdW>
0.209

> <VdW6>
-3.762

> <VdW12>
3.972

> <Bond>
0.078

> <Angle>
2.428

> <Pdih>
3.616

> <Idih>
0.002

> <Tether>
0.000

$$$$
VeraChem MOL file


 13 12  0  0  0  0  0  0  0  0999 V2000     
   19.0419   19.7856   20.8192 C   0  0  0  0  0  0  0  0  0  0  0  0
   19.2627   20.9802   20.8273 O   0  5  0  0  0  0  0  0  0  0  0  0
   18.7812   19.1596   19.8111 O   0  0  0  0  0  0  0  0  0  0  0  0
   19.0569   19.0358   22.1490 C   0  0  0  0  0  0  0  0  0  0  0  0
   18.1473   18.4248   22.1902 H   0  0  0  0  0  0  0  0  0  0  0  0
   18.9854   19.7657   22.9648 H   0  0  0  0  0  0  0  0  0  0  0  0
   20.2973   18.1282   22.3519 C   0  0  0  0  0  0  0  0  0  0  0  0
   20.1534   17.5185   23.2543 H   0  0  0  0  0  0  0  0  0  0  0  0
   20.3830   17.4287   21.5085 H   0  0  0  0  0  0  0  0  0  0  0  0
   21.6036   18.9367   22.4930 C   0  0  0  0  0  0  0  0  0  0  0  0
   21.5477   19.6272   23.3448 H   0  0  0  0  0  0  0  0  0  0  0  0
   22.4578   18.2664   22.6547 H   0  0  0  0  0  0  0  0  0  0  0  0
   21.8028   19.5260   21.5881 H   0  0  0  0  0  0  0  0  0  0  0  0
  1  2  1  0  0  0  0
  1  3  2  0  0  0  0
  1  4  1  0  0  0  0
  4  5  1  0  0  0  0
  4  6  1  0  0  0  0
  4  7  1  0  0  0  0
  7  8  1  0  0  0  0
  7  9  1  0  0  0  0
  7 10  1  0  0  0  0
 10 11  1  0  0  0  0
 10 12  1  0  0  0  0
 10 13  1  0  0  0  0
M  END
> <VConfSearch Rank>
596

> <Conf_Id>
36

> <Delta U+W>
0.272

> <U+W>
-58.060

> <U>
9.781

> <W>
-67.841

> <W(PB)>
-69.537

> <W(SA)>
1.696

> <Valence>
6.123

> <Coulomb>
3.449

> <VdW>
0.209

> <VdW6>
-3.762

> <VdW12>
3.972

> <Bond>
0.078

> <Angle>
2.428

> <Pdih>
3.616

> <Idih>
0.002

> <Tether>
0.000

$$$$
VeraChem MOL file


 13 12  0  0  0  0  0  0  0  0999 V2000     
   20.4996   21.0418   22.2136 C   0  0  0  0  0  0  0  0  0  0  0  0
   20.6035   21.0087   23.4242 O   0  5  0  0  0  0  0  0  0  0  0  0
   20.6588   22.0552   21.5636 O   0  0  0  0  0  0  0  0  0  0  0  0
   20.1532   19.7653   21.4447 C   0  0  0  0  0  0  0  0  0  0  0  0
   20.9546   19.5940   20.7161 H   0  0  0  0  0  0  0  0  0  0  0  0
   19.2386   19.9646   20.8738 H   0  0  0  0  0  0  0  0  0  0  0  0
   19.9593   18.4967   22.3160 C   0  0  0  0  0  0  0  0  0  0  0  0
   20.8760   18.3004   22.8894 H   0  0  0  0  0  0  0  0  0  0  0  0
   19.1579   18.6715   23.0474 H   0  0  0  0  0  0  0  0  0  0  0  0
   19.6140   17.2634   21.4572 C   0  0  0  0  0  0  0  0  0  0  0  0
   20.4151   17.0487   20.7378 H   0  0  0  0  0  0  0  0  0  0  0  0
   19.4806   16.3766   22.0905 H   0  0  0  0  0  0  0  0  0  0  0  0
   18.6833   17.4228   20.8969 H   0  0  0  0  0  0  0  0  0  0  0  0
  1  2  1  0  0  0  0
  1  3  2  0  0  0  0
  1  4  1  0  0  0  0
  4  5  1  0  0  0  0
  4  6  1  0  0  0  0
  4  7  1  0  0  0  0
  7  8  1  0  0  0  0
  7  9  1  0  0  0  0
  7 10  1  0  0  0  0
 10 11  1  0  0  0  0
 10 12  1  0  0  0  0
 10 13  1  0  0  0  0
M  END
> <VConfSearch Rank>
597

> <Conf_Id>
0

> <Delta U+W>
0.000

> <U+W>
-58.332

> <U>
8.390

> <W>
-66.722

> <W(PB)>
-68.455

> <W(SA)>
1.733

> <Valence>
6.333

> <Coulomb>
1.215

> <VdW>
0.842

> <VdW6>
-3.344

> <VdW12>
4.186

> <Bond>
0.091

> <Angle>
2.713

> <Pdih>
3.529

> <Idih>
0.000

> <Tether>
0.000

$$$$
VeraChem MOL file


 13 12  0  0  0  0  0  0  0  0999 V2000     
   20.9482   20.9193   21.9184 C   0  0  0  0  0  0  0  0  0  0  0  0
   20.5755   21.7463   21.1106 O   0  5  0  0  0  0  0  0  0  0  0  0
   22.0467   20.9349   22.4365 O   0  0  0  0  0  0  0  0  0  0  0  0
   19.9924   19.7900   22.2879 C   0  0  0  0  0  0  0  0  0  0  0  0
   18.9683   20.1794   22.2381 H   0  0  0  0  0  0  0  0  0  0  0  0
   20.1816   19.5103   23.3315 H   0  0  0  0  0  0  0  0  0  0  0  0
   20.1367   18.5518   21.3702 C   0  0  0  0  0  0  0  0  0  0  0  0
   19.9549   18.8458   20.3270 H   0  0  0  0  0  0  0  0  0  0  0  0
   21.1684   18.1765   21.4207 H   0  0  0  0  0  0  0  0  0  0  0  0
   19.1579   17.4294   21.7693 C   0  0  0  0  0  0  0  0  0  0  0  0
   19.2750   16.5609   21.1080 H   0  0  0  0  0  0  0  0  0  0  0  0
   19.3399   17.0976   22.8000 H   0  0  0  0  0  0  0  0  0  0  0  0
   18.1172   17.7720   21.6979 H   0  0  0  0  0  0  0  0  0  0  0  0
  1  2  1  0  0  0  0
  1  3  2  0  0  0  0
  1  4  1  0  0  0  0
  4  5  1  0  0  0  0
  4  6  1  0  0  0  0
  4  7  1  0  0  0  0
  7  8  1  0  0  0  0
  7  9  1  0  0  0  0
  7 10  1  0  0  0  0
 10 11  1  0  0  0  0
 10 12  1  0  0  0  0
 10 13  1  0  0  0  0
M  END
> <VConfSearch Rank>
598

> <Conf_Id>
1

> <Delta U+W>
-1.339

> <U+W>
-59.672

> <U>
7.389

> <W>
-67.061

> <W(PB)>
-68.767

> <W(SA)>
1.707

> <Valence>
5.822

> <Coulomb>
1.255

> <VdW>
0.312

> <VdW6>
-3.061

> <VdW12>
3.372

> <Bond>
0.059

> <Angle>
2.241

> <Pdih>
3.522

> <Idih>
0.000

> <Tether>
0.000

$$$$
VeraChem MOL file


 13 12  0  0  0  0  0  0  0  0999 V2000     
   21.2708   17.9303   21.0902 C   0  0  0  0  0  0  0  0  0  0  0  0
   21.1172   17.8926   19.8856 O   0  5  0  0  0  0  0  0  0  0  0  0
   22.3609   17.9626   21.6255 O   0  0  0  0  0  0  0  0  0  0  0  0
   20.0279   17.8992   21.9761 C   0  0  0  0  0  0  0  0  0  0  0  0
   20.3281   17.6183   22.9931 H   0  0  0  0  0  0  0  0  0  0  0  0
   19.3809   17.0960   21.6037 H   0  0  0  0  0  0  0  0  0  0  0  0
   19.2338   19.2304   22.0024 C   0  0  0  0  0  0  0  0  0  0  0  0
   18.9738   19.5238   20.9756 H   0  0  0  0  0  0  0  0  0  0  0  0
   18.2860   19.0737   22.5354 H   0  0  0  0  0  0  0  0  0  0  0  0
   20.0149   20.3704   22.6881 C   0  0  0  0  0  0  0  0  0  0  0  0
   20.9502   20.5848   22.1541 H   0  0  0  0  0  0  0  0  0  0  0  0
   19.4179   21.2914   22.7074 H   0  0  0  0  0  0  0  0  0  0  0  0
   20.2658   20.1065   23.7238 H   0  0  0  0  0  0  0  0  0  0  0  0
  1  2  1  0  0  0  0
  1  3  2  0  0  0  0
  1  4  1  0  0  0  0
  4  5  1  0  0  0  0
  4  6  1  0  0  0  0
  4  7  1  0  0  0  0
  7  8  1  0  0  0  0
  7  9  1  0  0  0  0
  7 10  1  0  0  0  0
 10 11  1  0  0  0  0
 10 12  1  0  0  0  0
 10 13  1  0  0  0  0
M  END
> <VConfSearch Rank>
599

> <Conf_Id>
4

> <Delta U+W>
0.281

> <U+W>
-58.051

> <U>
9.781

> <W>
-67.832

> <W(PB)>
-69.535

> <W(SA)>
1.703

> <Valence>
6.123

> <Coulomb>
3.449

> <VdW>
0.209

> <VdW6>
-3.762

> <VdW12>
3.972

> <Bond>
0.078

> <Angle>
2.428

> <Pdih>
3.616

> <Idih>
0.002

> <Tether>
0.000

$$$$
VeraChem MOL file


 13 12  0  0  0  0  0  0  0  0999 V2000     
   18.4907   19.5961   21.5827 C   0  0  0  0  0  0  0  0  0  0  0  0
   18.4874   19.9928   20.4344 O   0  5  0  0  0  0  0  0  0  0  0  0
   17.5508   19.0216   22.0954 O   0  0  0  0  0  0  0  0  0  0  0  0
   19.7256   19.8637   22.4395 C   0  0  0  0  0  0  0  0  0  0  0  0
   19.3782   20.2773   23.3937 H   0  0  0  0  0  0  0  0  0  0  0  0
   20.3264   20.6438   21.9561 H   0  0  0  0  0  0  0  0  0  0  0  0
   20.5959   18.6091   22.7078 C   0  0  0  0  0  0  0  0  0  0  0  0
   21.3688   18.8587   23.4475 H   0  0  0  0  0  0  0  0  0  0  0  0
   19.9751   17.8195   23.1539 H   0  0  0  0  0  0  0  0  0  0  0  0
   21.2754   18.0774   21.4289 C   0  0  0  0  0  0  0  0  0  0  0  0
   21.9189   18.8446   20.9786 H   0  0  0  0  0  0  0  0  0  0  0  0
   21.8983   17.2027   21.6569 H   0  0  0  0  0  0  0  0  0  0  0  0
   20.5294   17.7758   20.6818 H   0  0  0  0  0  0  0  0  0  0  0  0
  1  2  1  0  0  0  0
  1  3  2  0  0  0  0
  1  4  1  0  0  0  0
  4  5  1  0  0  0  0
  4  6  1  0  0  0  0
  4  7  1  0  0  0  0
  7  8  1  0  0  0  0
  7  9  1  0  0  0  0
  7 10  1  0  0  0  0
 10 11  1  0  0  0  0
 10 12  1  0  0  0  0
 10 13  1  0  0  0  0
M  END
> <VConfSearch Rank>
600

> <Conf_Id>
36

> <Delta U+W>
0.272

> <U+W>
-58.060

> <U>
9.781

> <W>
-67.841

> <W(PB)>
-69.537

> <W(SA)>
1.696

> <Valence>
6.123

> <Coulomb>
3.449

> <VdW>
0.209

> <VdW6>
-3.762

> <VdW12>
3.972

> <Bond>
0.078

> <Angle>
2.428

> <Pdih>
3.616

> <Idih>
0.002

> <Tether>
0.000

$$$$
VeraChem MOL file


 13 12  0  0  0  0  0  0  0  0999 V2000     
   18.5037   17.5044   21.7818 C   0  0  0  0  0  0  0  0  0  0  0  0
   18.4188   17.2540   22.9682 O   0  5  0  0  0  0  0  0  0  0  0  0
   17.8258   16.9522   20.9391 O   0  0  0  0  0  0  0  0  0  0  0  0
   19.5008   18.5583   21.2964 C   0  0  0  0  0  0  0  0  0  0  0  0
   18.9327   19.3189   20.7477 H   0  0  0  0  0  0  0  0  0  0  0  0
   20.1659   18.0717   20.5730 H   0  0  0  0  0  0  0  0  0  0  0  0
   20.3443   19.2367   22.4074 C   0  0  0  0  0  0  0  0  0  0  0  0
   19.6759   19.7213   23.1328 H   0  0  0  0  0  0  0  0  0  0  0  0
   20.9106   18.4725   22.9579 H   0  0  0  0  0  0  0  0  0  0  0  0
   21.3182   20.2810   21.8255 C   0  0  0  0  0  0  0  0  0  0  0  0
   20.7737   21.0739   21.2959 H   0  0  0  0  0  0  0  0  0  0  0  0
   21.9057   20.7498   22.6257 H   0  0  0  0  0  0  0  0  0  0  0  0
   22.0182   19.8151   21.1196 H   0  0  0  0  0  0  0  0  0  0  0  0
  1  2  1  0  0  0  0
  1  3  2  0  0  0  0
  1  4  1  0  0  0  0
  4  5  1  0  0  0  0
  4  6  1  0  0  0  0
  4  7  1  0  0  0  0
  7  8  1  0  0  0  0
  7  9  1  0  0  0  0
  7 10  1  0  0  0  0
 10 11  1  0  0  0  0
 10 12  1  0  0  0  0
 10 13  1  0  0  0  0
M  END
> <VConfSearch Rank>
601

> <Conf_Id>
0

> <Delta U+W>
0.000

> <U+W>
-58.332

> <U>
8.390

> <W>
-66.722

> <W(PB)>
-68.455

> <W(SA)>
1.733

> <Valence>
6.333

> <Coulomb>
1.215

> <VdW>
0.842

> <VdW6>
-3.344

> <VdW12>
4.186

> <Bond>
0.091

> <Angle>
2.713

> <Pdih>
3.529

> <Idih>
0.000

> <Tether>
0.000

$$$$
VeraChem MOL file


 13 12  0  0  0  0  0  0  0  0999 V2000     
   22.0278   19.5506   22.0417 C   0  0  0  0  0  0  0  0  0  0  0  0
   22.7133   19.4309   21.0462 O   0  5  0  0  0  0  0  0  0  0  0  0
   22.4733   19.5164   23.1713 O   0  0  0  0  0  0  0  0  0  0  0  0
   20.5245   19.7350   21.8645 C   0  0  0  0  0  0  0  0  0  0  0  0
   20.3561   20.2912   20.9343 H   0  0  0  0  0  0  0  0  0  0  0  0
   20.1581   20.3617   22.6867 H   0  0  0  0  0  0  0  0  0  0  0  0
   19.7512   18.3946   21.8311 C   0  0  0  0  0  0  0  0  0  0  0  0
   20.1332   17.7714   21.0103 H   0  0  0  0  0  0  0  0  0  0  0  0
   19.9351   17.8421   22.7631 H   0  0  0  0  0  0  0  0  0  0  0  0
   18.2358   18.6150   21.6509 C   0  0  0  0  0  0  0  0  0  0  0  0
   17.7051   17.6542   21.6296 H   0  0  0  0  0  0  0  0  0  0  0  0
   17.8248   19.2111   22.4763 H   0  0  0  0  0  0  0  0  0  0  0  0
   18.0244   19.1399   20.7100 H   0  0  0  0  0  0  0  0  0  0  0  0
  1  2  1  0  0  0  0
  1  3  2  0  0  0  0
  1  4  1  0  0  0  0
  4  5  1  0  0  0  0
  4  6  1  0  0  0  0
  4  7  1  0  0  0  0
  7  8  1  0  0  0  0
  7  9  1  0  0  0  0
  7 10  1  0  0  0  0
 10 11  1  0  0  0  0
 10 12  1  0  0  0  0
 10 13  1  0  0  0  0
M  END
> <VConfSearch Rank>
602

> <Conf_Id>
1

> <Delta U+W>
-1.339

> <U+W>
-59.672

> <U>
7.389

> <W>
-67.061

> <W(PB)>
-68.767

> <W(SA)>
1.707

> <Valence>
5.822

> <Coulomb>
1.255

> <VdW>
0.312

> <VdW6>
-3.061

> <VdW12>
3.372

> <Bond>
0.059

> <Angle>
2.241

> <Pdih>
3.522

> <Idih>
0.000

> <Tether>
0.000

$$$$
VeraChem MOL file


 13 12  0  0  0  0  0  0  0  0999 V2000     
   20.3249   17.6502   20.7991 C   0  0  0  0  0  0  0  0  0  0  0  0
   21.4132   17.5762   20.2641 O   0  5  0  0  0  0  0  0  0  0  0  0
   19.6842   16.6796   21.1505 O   0  0  0  0  0  0  0  0  0  0  0  0
   19.7171   19.0351   21.0068 C   0  0  0  0  0  0  0  0  0  0  0  0
   18.6414   18.9229   21.1904 H   0  0  0  0  0  0  0  0  0  0  0  0
   19.8216   19.5831   20.0628 H   0  0  0  0  0  0  0  0  0  0  0  0
   20.3719   19.8504   22.1513 C   0  0  0  0  0  0  0  0  0  0  0  0
   21.4550   19.9215   21.9791 H   0  0  0  0  0  0  0  0  0  0  0  0
   19.9810   20.8769   22.1312 H   0  0  0  0  0  0  0  0  0  0  0  0
   20.1045   19.2365   23.5412 C   0  0  0  0  0  0  0  0  0  0  0  0
   20.5221   18.2234   23.6122 H   0  0  0  0  0  0  0  0  0  0  0  0
   20.5642   19.8476   24.3289 H   0  0  0  0  0  0  0  0  0  0  0  0
   19.0270   19.1767   23.7431 H   0  0  0  0  0  0  0  0  0  0  0  0
  1  2  1  0  0  0  0
  1  3  2  0  0  0  0
  1  4  1  0  0  0  0
  4  5  1  0  0  0  0
  4  6  1  0  0  0  0
  4  7  1  0  0  0  0
  7  8  1  0  0  0  0
  7  9  1  0  0  0  0
  7 10  1  0  0  0  0
 10 11  1  0  0  0  0
 10 12  1  0  0  0  0
 10 13  1  0  0  0  0
M  END
> <VConfSearch Rank>
603

> <Conf_Id>
4

> <Delta U+W>
0.281

> <U+W>
-58.051

> <U>
9.781

> <W>
-67.832

> <W(PB)>
-69.535

> <W(SA)>
1.703

> <Valence>
6.123

> <Coulomb>
3.449

> <VdW>
0.209

> <VdW6>
-3.762

> <VdW12>
3.972

> <Bond>
0.078

> <Angle>
2.428

> <Pdih>
3.616

> <Idih>
0.002

> <Tether>
0.000

$$$$
VeraChem MOL file


 13 12  0  0  0  0  0  0  0  0999 V2000     
   20.4015   18.2779   20.3677 C   0  0  0  0  0  0  0  0  0  0  0  0
   21.5348   17.8453   20.3008 O   0  5  0  0  0  0  0  0  0  0  0  0
   19.4473   17.7397   19.8425 O   0  0  0  0  0  0  0  0  0  0  0  0
   20.1670   19.5853   21.1204 C   0  0  0  0  0  0  0  0  0  0  0  0
   19.5530   20.2272   20.4774 H   0  0  0  0  0  0  0  0  0  0  0  0
   21.1301   20.0943   21.2491 H   0  0  0  0  0  0  0  0  0  0  0  0
   19.4678   19.4107   22.4929 C   0  0  0  0  0  0  0  0  0  0  0  0
   19.2046   20.4001   22.8912 H   0  0  0  0  0  0  0  0  0  0  0  0
   18.5243   18.8634   22.3580 H   0  0  0  0  0  0  0  0  0  0  0  0
   20.3550   18.6746   23.5181 C   0  0  0  0  0  0  0  0  0  0  0  0
   21.2949   19.2170   23.6847 H   0  0  0  0  0  0  0  0  0  0  0  0
   19.8389   18.5853   24.4828 H   0  0  0  0  0  0  0  0  0  0  0  0
   20.6017   17.6622   23.1716 H   0  0  0  0  0  0  0  0  0  0  0  0
  1  2  1  0  0  0  0
  1  3  2  0  0  0  0
  1  4  1  0  0  0  0
  4  5  1  0  0  0  0
  4  6  1  0  0  0  0
  4  7  1  0  0  0  0
  7  8  1  0  0  0  0
  7  9  1  0  0  0  0
  7 10  1  0  0  0  0
 10 11  1  0  0  0  0
 10 12  1  0  0  0  0
 10 13  1  0  0  0  0
M  END
> <VConfSearch Rank>
604

> <Conf_Id>
36

> <Delta U+W>
0.272

> <U+W>
-58.060

> <U>
9.781

> <W>
-67.841

> <W(PB)>
-69.537

> <W(SA)>
1.696

> <Valence>
6.123

> <Coulomb>
3.449

> <VdW>
0.209

> <VdW6>
-3.762

> <VdW12>
3.972

> <Bond>
0.078

> <Angle>
2.428

> <Pdih>
3.616

> <Idih>
0.002

> <Tether>
0.000

$$$$
VeraChem MOL file


 13 12  0  0  0  0  0  0  0  0999 V2000     
   18.4301   17.6133   22.1146 C   0  0  0  0  0  0  0  0  0  0  0  0
   18.6768   17.2396   23.2446 O   0  5  0  0  0  0  0  0  0  0  0  0
   17.4861   17.1993   21.4724 O   0  0  0  0  0  0  0  0  0  0  0  0
   19.3312   18.6513   21.4429 C   0  0  0  0  0  0  0  0  0  0  0  0
   18.6982   19.5008   21.1601 H   0  0  0  0  0  0  0  0  0  0  0  0
   19.7057   18.2074   20.5128 H   0  0  0  0  0  0  0  0  0  0  0  0
   20.5233   19.1507   22.3005 C   0  0  0  0  0  0  0  0  0  0  0  0
   20.1460   19.5925   23.2333 H   0  0  0  0  0  0  0  0  0  0  0  0
   21.1547   18.2975   22.5853 H   0  0  0  0  0  0  0  0  0  0  0  0
   21.3729   20.1913   21.5435 C   0  0  0  0  0  0  0  0  0  0  0  0
   20.7710   21.0693   21.2744 H   0  0  0  0  0  0  0  0  0  0  0  0
   22.2107   20.5326   22.1655 H   0  0  0  0  0  0  0  0  0  0  0  0
   21.7877   19.7639   20.6211 H   0  0  0  0  0  0  0  0  0  0  0  0
  1  2  1  0  0  0  0
  1  3  2  0  0  0  0
  1  4  1  0  0  0  0
  4  5  1  0  0  0  0
  4  6  1  0  0  0  0
  4  7  1  0  0  0  0
  7  8  1  0  0  0  0
  7  9  1  0  0  0  0
  7 10  1  0  0  0  0
 10 11  1  0  0  0  0
 10 12  1  0  0  0  0
 10 13  1  0  0  0  0
M  END
> <VConfSearch Rank>
605

> <Conf_Id>
0

> <Delta U+W>
0.000

> <U+W>
-58.332

> <U>
8.390

> <W>
-66.722

> <W(PB)>
-68.455

> <W(SA)>
1.733

> <Valence>
6.333

> <Coulomb>
1.215

> <VdW>
0.842

> <VdW6>
-3.344

> <VdW12>
4.186

> <Bond>
0.091

> <Angle>
2.713

> <Pdih>
3.529

> <Idih>
0.000

> <Tether>
0.000

$$$$
VeraChem MOL file


 13 12  0  0  0  0  0  0  0  0999 V2000     
   18.3568   18.0631   22.7492 C   0  0  0  0  0  0  0  0  0  0  0  0
   17.2532   18.4722   22.4493 O   0  5  0  0  0  0  0  0  0  0  0  0
   18.5976   17.4821   23.7884 O   0  0  0  0  0  0  0  0  0  0  0  0
   19.5059   18.3087   21.7772 C   0  0  0  0  0  0  0  0  0  0  0  0
   19.1011   18.2884   20.7580 H   0  0  0  0  0  0  0  0  0  0  0  0
   20.2098   17.4719   21.8622 H   0  0  0  0  0  0  0  0  0  0  0  0
   20.2377   19.6484   22.0330 C   0  0  0  0  0  0  0  0  0  0  0  0
   19.5212   20.4781   21.9551 H   0  0  0  0  0  0  0  0  0  0  0  0
   20.6302   19.6614   23.0595 H   0  0  0  0  0  0  0  0  0  0  0  0
   21.3924   19.8668   21.0349 C   0  0  0  0  0  0  0  0  0  0  0  0
   21.8987   20.8208   21.2321 H   0  0  0  0  0  0  0  0  0  0  0  0
   22.1378   19.0646   21.1150 H   0  0  0  0  0  0  0  0  0  0  0  0
   21.0203   19.8876   20.0022 H   0  0  0  0  0  0  0  0  0  0  0  0
  1  2  1  0  0  0  0
  1  3  2  0  0  0  0
  1  4  1  0  0  0  0
  4  5  1  0  0  0  0
  4  6  1  0  0  0  0
  4  7  1  0  0  0  0
  7  8  1  0  0  0  0
  7  9  1  0  0  0  0
  7 10  1  0  0  0  0
 10 11  1  0  0  0  0
 10 12  1  0  0  0  0
 10 13  1  0  0  0  0
M  END
> <VConfSearch Rank>
606

> <Conf_Id>
1

> <Delta U+W>
-1.339

> <U+W>
-59.672

> <U>
7.389

> <W>
-67.061

> <W(PB)>
-68.767

> <W(SA)>
1.707

> <Valence>
5.822

> <Coulomb>
1.255

> <VdW>
0.312

> <VdW6>
-3.061

> <VdW12>
3.372

> <Bond>
0.059

> <Angle>
2.241

> <Pdih>
3.522

> <Idih>
0.000

> <Tether>
0.000

$$$$
VeraChem MOL file


 13 12  0  0  0  0  0  0  0  0999 V2000     
   19.3354   20.3083   21.1083 C   0  0  0  0  0  0  0  0  0  0  0  0
   18.6714   21.0740   21.7782 O   0  5  0  0  0  0  0  0  0  0  0  0
   20.0490   20.6659   20.1924 O   0  0  0  0  0  0  0  0  0  0  0  0
   19.2384   18.8153   21.4123 C   0  0  0  0  0  0  0  0  0  0  0  0
   19.6214   18.2555   20.5502 H   0  0  0  0  0  0  0  0  0  0  0  0
   18.1738   18.5685   21.5025 H   0  0  0  0  0  0  0  0  0  0  0  0
   19.9794   18.3810   22.7029 C   0  0  0  0  0  0  0  0  0  0  0  0
   19.6176   18.9766   23.5528 H   0  0  0  0  0  0  0  0  0  0  0  0
   19.7332   17.3335   22.9240 H   0  0  0  0  0  0  0  0  0  0  0  0
   21.5106   18.5239   22.5809 C   0  0  0  0  0  0  0  0  0  0  0  0
   21.7966   19.5691   22.4033 H   0  0  0  0  0  0  0  0  0  0  0  0
   22.0049   18.1901   23.5026 H   0  0  0  0  0  0  0  0  0  0  0  0
   21.8963   17.9184   21.7503 H   0  0  0  0  0  0  0  0  0  0  0  0
  1  2  1  0  0  0  0
  1  3  2  0  0  0  0
  1  4  1  0  0  0  0
  4  5  1  0  0  0  0
  4  6  1  0  0  0  0
  4  7  1  0  0  0  0
  7  8  1  0  0  0  0
  7  9  1  0  0  0  0
  7 10  1  0  0  0  0
 10 11  1  0  0  0  0
 10 12  1  0  0  0  0
 10 13  1  0  0  0  0
M  END
> <VConfSearch Rank>
607

> <Conf_Id>
4

> <Delta U+W>
0.281

> <U+W>
-58.051

> <U>
9.781

> <W>
-67.832

> <W(PB)>
-69.535

> <W(SA)>
1.703

> <Valence>
6.123

> <Coulomb>
3.449

> <VdW>
0.209

> <VdW6>
-3.762

> <VdW12>
3.972

> <Bond>
0.078

> <Angle>
2.428

> <Pdih>
3.616

> <Idih>
0.002

> <Tether>
0.000

$$$$
VeraChem MOL file


 13 12  0  0  0  0  0  0  0  0999 V2000     
   20.9736   17.5083   21.4082 C   0  0  0  0  0  0  0  0  0  0  0  0
   20.1858   16.5900   21.2987 O   0  5  0  0  0  0  0  0  0  0  0  0
   21.8871   17.7030   20.6313 O   0  0  0  0  0  0  0  0  0  0  0  0
   20.8323   18.4471   22.6038 C   0  0  0  0  0  0  0  0  0  0  0  0
   21.8260   18.5539   23.0549 H   0  0  0  0  0  0  0  0  0  0  0  0
   20.1937   17.9660   23.3548 H   0  0  0  0  0  0  0  0  0  0  0  0
   20.2744   19.8489   22.2475 C   0  0  0  0  0  0  0  0  0  0  0  0
   20.3483   20.5004   23.1289 H   0  0  0  0  0  0  0  0  0  0  0  0
   20.8974   20.3046   21.4650 H   0  0  0  0  0  0  0  0  0  0  0  0
   18.8051   19.7982   21.7800 C   0  0  0  0  0  0  0  0  0  0  0  0
   18.1609   19.3661   22.5569 H   0  0  0  0  0  0  0  0  0  0  0  0
   18.4358   20.8072   21.5550 H   0  0  0  0  0  0  0  0  0  0  0  0
   18.7006   19.1896   20.8720 H   0  0  0  0  0  0  0  0  0  0  0  0
  1  2  1  0  0  0  0
  1  3  2  0  0  0  0
  1  4  1  0  0  0  0
  4  5  1  0  0  0  0
  4  6  1  0  0  0  0
  4  7  1  0  0  0  0
  7  8  1  0  0  0  0
  7  9  1  0  0  0  0
  7 10  1  0  0  0  0
 10 11  1  0  0  0  0
 10 12  1  0  0  0  0
 10 13  1  0  0  0  0
M  END
> <VConfSearch Rank>
608

> <Conf_Id>
36

> <Delta U+W>
0.272

> <U+W>
-58.060

> <U>
9.781

> <W>
-67.841

> <W(PB)>
-69.537

> <W(SA)>
1.696

> <Valence>
6.123

> <Coulomb>
3.449

> <VdW>
0.209

> <VdW6>
-3.762

> <VdW12>
3.972

> <Bond>
0.078

> <Angle>
2.428

> <Pdih>
3.616

> <Idih>
0.002

> <Tether>
0.000

$$$$
VeraChem MOL file


 13 12  0  0  0  0  0  0  0  0999 V2000     
   21.6522   19.5996   23.0592 C   0  0  0  0  0  0  0  0  0  0  0  0
   21.3825   20.7745   23.2154 O   0  5  0  0  0  0  0  0  0  0  0  0
   22.6303   19.0745   23.5515 O   0  0  0  0  0  0  0  0  0  0  0  0
   20.7377   18.7157   22.2089 C   0  0  0  0  0  0  0  0  0  0  0  0
   20.4092   17.8813   22.8399 H   0  0  0  0  0  0  0  0  0  0  0  0
   21.3495   18.2882   21.4056 H   0  0  0  0  0  0  0  0  0  0  0  0
   19.5018   19.4292   21.6009 C   0  0  0  0  0  0  0  0  0  0  0  0
   18.8915   19.8594   22.4073 H   0  0  0  0  0  0  0  0  0  0  0  0
   19.8331   20.2668   20.9714 H   0  0  0  0  0  0  0  0  0  0  0  0
   18.6414   18.4624   20.7625 C   0  0  0  0  0  0  0  0  0  0  0  0
   18.2717   17.6313   21.3775 H   0  0  0  0  0  0  0  0  0  0  0  0
   17.7726   18.9847   20.3410 H   0  0  0  0  0  0  0  0  0  0  0  0
   19.2208   18.0420   19.9300 H   0  0  0  0  0  0  0  0  0  0  0  0
  1  2  1  0  0  0  0
  1  3  2  0  0  0  0
  1  4  1  0  0  0  0
  4  5  1  0  0  0  0
  4  6  1  0  0  0  0
  4  7  1  0  0  0  0
  7  8  1  0  0  0  0
  7  9  1  0  0  0  0
  7 10  1  0  0  0  0
 10 11  1  0  0  0  0
 10 12  1  0  0  0  0
 10 13  1  0  0  0  0
M  END
> <VConfSearch Rank>
609

> <Conf_Id>
0

> <Delta U+W>
0.000

> <U+W>
-58.332

> <U>
8.390

> <W>
-66.722

> <W(PB)>
-68.455

> <W(SA)>
1.733

> <Valence>
6.333

> <Coulomb>
1.215

> <VdW>
0.842

> <VdW6>
-3.344

> <VdW12>
4.186

> <Bond>
0.091

> <Angle>
2.713

> <Pdih>
3.529

> <Idih>
0.000

> <Tether>
0.000

$$$$
VeraChem MOL file


 13 12  0  0  0  0  0  0  0  0999 V2000     
   21.4101   19.9937   23.0695 C   0  0  0  0  0  0  0  0  0  0  0  0
   21.4953   19.5740   24.2062 O   0  5  0  0  0  0  0  0  0  0  0  0
   21.7319   21.1187   22.7437 O   0  0  0  0  0  0  0  0  0  0  0  0
   20.8514   19.0642   21.9974 C   0  0  0  0  0  0  0  0  0  0  0  0
   21.1412   18.0373   22.2511 H   0  0  0  0  0  0  0  0  0  0  0  0
   21.3363   19.3111   21.0451 H   0  0  0  0  0  0  0  0  0  0  0  0
   19.3135   19.1635   21.8535 C   0  0  0  0  0  0  0  0  0  0  0  0
   18.8391   18.9239   22.8155 H   0  0  0  0  0  0  0  0  0  0  0  0
   19.0342   20.1979   21.6091 H   0  0  0  0  0  0  0  0  0  0  0  0
   18.7804   18.2126   20.7631 C   0  0  0  0  0  0  0  0  0  0  0  0
   17.6893   18.2971   20.6759 H   0  0  0  0  0  0  0  0  0  0  0  0
   19.2182   18.4519   19.7850 H   0  0  0  0  0  0  0  0  0  0  0  0
   19.0216   17.1681   21.0007 H   0  0  0  0  0  0  0  0  0  0  0  0
  1  2  1  0  0  0  0
  1  3  2  0  0  0  0
  1  4  1  0  0  0  0
  4  5  1  0  0  0  0
  4  6  1  0  0  0  0
  4  7  1  0  0  0  0
  7  8  1  0  0  0  0
  7  9  1  0  0  0  0
  7 10  1  0  0  0  0
 10 11  1  0  0  0  0
 10 12  1  0  0  0  0
 10 13  1  0  0  0  0
M  END
> <VConfSearch Rank>
610

> <Conf_Id>
1

> <Delta U+W>
-1.339

> <U+W>
-59.672

> <U>
7.389

> <W>
-67.061

> <W(PB)>
-68.767

> <W(SA)>
1.707

> <Valence>
5.822

> <Coulomb>
1.255

> <VdW>
0.312

> <VdW6>
-3.061

> <VdW12>
3.372

> <Bond>
0.059

> <Angle>
2.241

> <Pdih>
3.522

> <Idih>
0.000

> <Tether>
0.000

$$$$
VeraChem MOL file


 13 12  0  0  0  0  0  0  0  0999 V2000     
   21.7672   18.2503   22.0129 C   0  0  0  0  0  0  0  0  0  0  0  0
   21.9183   17.2801   22.7284 O   0  5  0  0  0  0  0  0  0  0  0  0
   22.2675   18.3539   20.9107 O   0  0  0  0  0  0  0  0  0  0  0  0
   20.9336   19.4140   22.5437 C   0  0  0  0  0  0  0  0  0  0  0  0
   21.1546   20.3063   21.9453 H   0  0  0  0  0  0  0  0  0  0  0  0
   21.2772   19.6238   23.5637 H   0  0  0  0  0  0  0  0  0  0  0  0
   19.4068   19.1460   22.5589 C   0  0  0  0  0  0  0  0  0  0  0  0
   19.2003   18.2275   23.1260 H   0  0  0  0  0  0  0  0  0  0  0  0
   18.9029   19.9649   23.0902 H   0  0  0  0  0  0  0  0  0  0  0  0
   18.8142   19.0262   21.1396 C   0  0  0  0  0  0  0  0  0  0  0  0
   19.2648   18.1869   20.5933 H   0  0  0  0  0  0  0  0  0  0  0  0
   17.7306   18.8567   21.1858 H   0  0  0  0  0  0  0  0  0  0  0  0
   18.9902   19.9433   20.5622 H   0  0  0  0  0  0  0  0  0  0  0  0
  1  2  1  0  0  0  0
  1  3  2  0  0  0  0
  1  4  1  0  0  0  0
  4  5  1  0  0  0  0
  4  6  1  0  0  0  0
  4  7  1  0  0  0  0
  7  8  1  0  0  0  0
  7  9  1  0  0  0  0
  7 10  1  0  0  0  0
 10 11  1  0  0  0  0
 10 12  1  0  0  0  0
 10 13  1  0  0  0  0
M  END
> <VConfSearch Rank>
611

> <Conf_Id>
4

> <Delta U+W>
0.281

> <U+W>
-58.051

> <U>
9.781

> <W>
-67.832

> <W(PB)>
-69.535

> <W(SA)>
1.703

> <Valence>
6.123

> <Coulomb>
3.449

> <VdW>
0.209

> <VdW6>
-3.762

> <VdW12>
3.972

> <Bond>
0.078

> <Angle>
2.428

> <Pdih>
3.616

> <Idih>
0.002

> <Tether>
0.000

$$$$
VeraChem MOL file


 13 12  0  0  0  0  0  0  0  0999 V2000     
   19.7596   20.7038   22.2612 C   0  0  0  0  0  0  0  0  0  0  0  0
   18.5586   20.8631   22.3519 O   0  5  0  0  0  0  0  0  0  0  0  0
   20.5689   21.3195   22.9260 O   0  0  0  0  0  0  0  0  0  0  0  0
   20.2834   19.7037   21.2334 C   0  0  0  0  0  0  0  0  0  0  0  0
   21.0816   20.2015   20.6701 H   0  0  0  0  0  0  0  0  0  0  0  0
   19.4816   19.4823   20.5182 H   0  0  0  0  0  0  0  0  0  0  0  0
   20.8287   18.3890   21.8479 C   0  0  0  0  0  0  0  0  0  0  0  0
   21.3179   17.7995   21.0605 H   0  0  0  0  0  0  0  0  0  0  0  0
   21.6019   18.6242   22.5927 H   0  0  0  0  0  0  0  0  0  0  0  0
   19.7196   17.5373   22.4994 C   0  0  0  0  0  0  0  0  0  0  0  0
   18.9467   17.2720   21.7662 H   0  0  0  0  0  0  0  0  0  0  0  0
   20.1354   16.6065   22.9065 H   0  0  0  0  0  0  0  0  0  0  0  0
   19.2371   18.0806   23.3228 H   0  0  0  0  0  0  0  0  0  0  0  0
  1  2  1  0  0  0  0
  1  3  2  0  0  0  0
  1  4  1  0  0  0  0
  4  5  1  0  0  0  0
  4  6  1  0  0  0  0
  4  7  1  0  0  0  0
  7  8  1  0  0  0  0
  7  9  1  0  0  0  0
  7 10  1  0  0  0  0
 10 11  1  0  0  0  0
 10 12  1  0  0  0  0
 10 13  1  0  0  0  0
M  END
> <VConfSearch Rank>
612

> <Conf_Id>
36

> <Delta U+W>
0.272

> <U+W>
-58.060

> <U>
9.781

> <W>
-67.841

> <W(PB)>
-69.537

> <W(SA)>
1.696

> <Valence>
6.123

> <Coulomb>
3.449

> <VdW>
0.209

> <VdW6>
-3.762

> <VdW12>
3.972

> <Bond>
0.078

> <Angle>
2.428

> <Pdih>
3.616

> <Idih>
0.002

> <Tether>
0.000

$$$$
VeraChem MOL file


 13 12  0  0  0  0  0  0  0  0999 V2000     
   18.6348   20.5074   22.4136 C   0  0  0  0  0  0  0  0  0  0  0  0
   17.7832   19.8191   22.9412 O   0  5  0  0  0  0  0  0  0  0  0  0
   18.5526   21.7165   22.3347 O   0  0  0  0  0  0  0  0  0  0  0  0
   19.8786   19.8506   21.8118 C   0  0  0  0  0  0  0  0  0  0  0  0
   20.7533   20.2956   22.3009 H   0  0  0  0  0  0  0  0  0  0  0  0
   19.9220   20.1381   20.7546 H   0  0  0  0  0  0  0  0  0  0  0  0
   19.9402   18.3057   21.9360 C   0  0  0  0  0  0  0  0  0  0  0  0
   19.8936   18.0195   22.9961 H   0  0  0  0  0  0  0  0  0  0  0  0
   19.0612   17.8619   21.4479 H   0  0  0  0  0  0  0  0  0  0  0  0
   21.2251   17.7342   21.3033 C   0  0  0  0  0  0  0  0  0  0  0  0
   22.1191   18.1394   21.7954 H   0  0  0  0  0  0  0  0  0  0  0  0
   21.2507   16.6410   21.4008 H   0  0  0  0  0  0  0  0  0  0  0  0
   21.2800   17.9806   20.2348 H   0  0  0  0  0  0  0  0  0  0  0  0
  1  2  1  0  0  0  0
  1  3  2  0  0  0  0
  1  4  1  0  0  0  0
  4  5  1  0  0  0  0
  4  6  1  0  0  0  0
  4  7  1  0  0  0  0
  7  8  1  0  0  0  0
  7  9  1  0  0  0  0
  7 10  1  0  0  0  0
 10 11  1  0  0  0  0
 10 12  1  0  0  0  0
 10 13  1  0  0  0  0
M  END
> <VConfSearch Rank>
613

> <Conf_Id>
0

> <Delta U+W>
0.000

> <U+W>
-58.332

> <U>
8.390

> <W>
-66.722

> <W(PB)>
-68.455

> <W(SA)>
1.733

> <Valence>
6.333

> <Coulomb>
1.215

> <VdW>
0.842

> <VdW6>
-3.344

> <VdW12>
4.186

> <Bond>
0.091

> <Angle>
2.713

> <Pdih>
3.529

> <Idih>
0.000

> <Tether>
0.000

$$$$
VeraChem MOL file


 13 12  0  0  0  0  0  0  0  0999 V2000     
   19.7382   16.9757   21.4610 C   0  0  0  0  0  0  0  0  0  0  0  0
   18.6820   16.6484   20.9584 O   0  5  0  0  0  0  0  0  0  0  0  0
   20.4261   16.2264   22.1248 O   0  0  0  0  0  0  0  0  0  0  0  0
   20.2171   18.4100   21.2638 C   0  0  0  0  0  0  0  0  0  0  0  0
   19.8753   18.7517   20.2792 H   0  0  0  0  0  0  0  0  0  0  0  0
   21.3137   18.4037   21.2411 H   0  0  0  0  0  0  0  0  0  0  0  0
   19.7127   19.3723   22.3663 C   0  0  0  0  0  0  0  0  0  0  0  0
   18.6139   19.3629   22.3863 H   0  0  0  0  0  0  0  0  0  0  0  0
   20.0526   19.0149   23.3484 H   0  0  0  0  0  0  0  0  0  0  0  0
   20.2135   20.8127   22.1384 C   0  0  0  0  0  0  0  0  0  0  0  0
   19.8459   21.4795   22.9293 H   0  0  0  0  0  0  0  0  0  0  0  0
   21.3107   20.8526   22.1441 H   0  0  0  0  0  0  0  0  0  0  0  0
   19.8609   21.2033   21.1747 H   0  0  0  0  0  0  0  0  0  0  0  0
  1  2  1  0  0  0  0
  1  3  2  0  0  0  0
  1  4  1  0  0  0  0
  4  5  1  0  0  0  0
  4  6  1  0  0  0  0
  4  7  1  0  0  0  0
  7  8  1  0  0  0  0
  7  9  1  0  0  0  0
  7 10  1  0  0  0  0
 10 11  1  0  0  0  0
 10 12  1  0  0  0  0
 10 13  1  0  0  0  0
M  END
> <VConfSearch Rank>
614

> <Conf_Id>
1

> <Delta U+W>
-1.339

> <U+W>
-59.672

> <U>
7.389

> <W>
-67.061

> <W(PB)>
-68.767

> <W(SA)>
1.707

> <Valence>
5.822

> <Coulomb>
1.255

> <VdW>
0.312

> <VdW6>
-3.061

> <VdW12>
3.372

> <Bond>
0.059

> <Angle>
2.241

> <Pdih>
3.522

> <Idih>
0.000

> <Tether>
0.000

$$$$
VeraChem MOL file


 13 12  0  0  0  0  0  0  0  0999 V2000     
   20.5558   18.8988   20.2590 C   0  0  0  0  0  0  0  0  0  0  0  0
   19.9259   19.6330   19.5240 O   0  5  0  0  0  0  0  0  0  0  0  0
   21.7482   18.6971   20.1425 O   0  0  0  0  0  0  0  0  0  0  0  0
   19.8002   18.1646   21.3638 C   0  0  0  0  0  0  0  0  0  0  0  0
   20.4164   17.3277   21.7148 H   0  0  0  0  0  0  0  0  0  0  0  0
   18.9017   17.7282   20.9113 H   0  0  0  0  0  0  0  0  0  0  0  0
   19.3909   19.0639   22.5584 C   0  0  0  0  0  0  0  0  0  0  0  0
   18.8092   19.9210   22.1911 H   0  0  0  0  0  0  0  0  0  0  0  0
   18.7287   18.4959   23.2261 H   0  0  0  0  0  0  0  0  0  0  0  0
   20.6074   19.5662   23.3632 C   0  0  0  0  0  0  0  0  0  0  0  0
   21.2705   20.1769   22.7362 H   0  0  0  0  0  0  0  0  0  0  0  0
   20.2823   20.1824   24.2116 H   0  0  0  0  0  0  0  0  0  0  0  0
   21.1910   18.7245   23.7587 H   0  0  0  0  0  0  0  0  0  0  0  0
  1  2  1  0  0  0  0
  1  3  2  0  0  0  0
  1  4  1  0  0  0  0
  4  5  1  0  0  0  0
  4  6  1  0  0  0  0
  4  7  1  0  0  0  0
  7  8  1  0  0  0  0
  7  9  1  0  0  0  0
  7 10  1  0  0  0  0
 10 11  1  0  0  0  0
 10 12  1  0  0  0  0
 10 13  1  0  0  0  0
M  END
> <VConfSearch Rank>
615

> <Conf_Id>
4

> <Delta U+W>
0.281

> <U+W>
-58.051

> <U>
9.781

> <W>
-67.832

> <W(PB)>
-69.535

> <W(SA)>
1.703

> <Valence>
6.123

> <Coulomb>
3.449

> <VdW>
0.209

> <VdW6>
-3.762

> <VdW12>
3.972

> <Bond>
0.078

> <Angle>
2.428

> <Pdih>
3.616

> <Idih>
0.002

> <Tether>
0.000

$$$$
VeraChem MOL file


 13 12  0  0  0  0  0  0  0  0999 V2000     
   19.9535   17.2160   21.6579 C   0  0  0  0  0  0  0  0  0  0  0  0
   20.8979   16.8399   20.9926 O   0  5  0  0  0  0  0  0  0  0  0  0
   19.4449   16.5482   22.5362 O   0  0  0  0  0  0  0  0  0  0  0  0
   19.3495   18.5844   21.3521 C   0  0  0  0  0  0  0  0  0  0  0  0
   18.2630   18.4540   21.2821 H   0  0  0  0  0  0  0  0  0  0  0  0
   19.6942   18.9074   20.3621 H   0  0  0  0  0  0  0  0  0  0  0  0
   19.6712   19.6708   22.4102 C   0  0  0  0  0  0  0  0  0  0  0  0
   19.0796   20.5707   22.1934 H   0  0  0  0  0  0  0  0  0  0  0  0
   19.3595   19.3199   23.4040 H   0  0  0  0  0  0  0  0  0  0  0  0
   21.1675   20.0455   22.4356 C   0  0  0  0  0  0  0  0  0  0  0  0
   21.4949   20.4201   21.4569 H   0  0  0  0  0  0  0  0  0  0  0  0
   21.3574   20.8295   23.1802 H   0  0  0  0  0  0  0  0  0  0  0  0
   21.7876   19.1767   22.6936 H   0  0  0  0  0  0  0  0  0  0  0  0
  1  2  1  0  0  0  0
  1  3  2  0  0  0  0
  1  4  1  0  0  0  0
  4  5  1  0  0  0  0
  4  6  1  0  0  0  0
  4  7  1  0  0  0  0
  7  8  1  0  0  0  0
  7  9  1  0  0  0  0
  7 10  1  0  0  0  0
 10 11  1  0  0  0  0
 10 12  1  0  0  0  0
 10 13  1  0  0  0  0
M  END
> <VConfSearch Rank>
616

> <Conf_Id>
36

> <Delta U+W>
0.272

> <U+W>
-58.060

> <U>
9.781

> <W>
-67.841

> <W(PB)>
-69.537

> <W(SA)>
1.696

> <Valence>
6.123

> <Coulomb>
3.449

> <VdW>
0.209

> <VdW6>
-3.762

> <VdW12>
3.972

> <Bond>
0.078

> <Angle>
2.428

> <Pdih>
3.616

> <Idih>
0.002

> <Tether>
0.000

$$$$
VeraChem MOL file


 13 12  0  0  0  0  0  0  0  0999 V2000     
   20.5871   16.9703   21.4948 C   0  0  0  0  0  0  0  0  0  0  0  0
   21.6753   17.1306   20.9776 O   0  5  0  0  0  0  0  0  0  0  0  0
   20.1053   15.8738   21.6955 O   0  0  0  0  0  0  0  0  0  0  0  0
   19.7622   18.1854   21.9233 C   0  0  0  0  0  0  0  0  0  0  0  0
   19.5583   18.0815   22.9957 H   0  0  0  0  0  0  0  0  0  0  0  0
   18.7970   18.1251   21.4065 H   0  0  0  0  0  0  0  0  0  0  0  0
   20.4173   19.5641   21.6473 C   0  0  0  0  0  0  0  0  0  0  0  0
   21.3857   19.6214   22.1637 H   0  0  0  0  0  0  0  0  0  0  0  0
   20.6235   19.6650   20.5726 H   0  0  0  0  0  0  0  0  0  0  0  0
   19.5157   20.7260   22.1110 C   0  0  0  0  0  0  0  0  0  0  0  0
   19.3200   20.6651   23.1897 H   0  0  0  0  0  0  0  0  0  0  0  0
   19.9955   21.6923   21.9077 H   0  0  0  0  0  0  0  0  0  0  0  0
   18.5517   20.7091   21.5858 H   0  0  0  0  0  0  0  0  0  0  0  0
  1  2  1  0  0  0  0
  1  3  2  0  0  0  0
  1  4  1  0  0  0  0
  4  5  1  0  0  0  0
  4  6  1  0  0  0  0
  4  7  1  0  0  0  0
  7  8  1  0  0  0  0
  7  9  1  0  0  0  0
  7 10  1  0  0  0  0
 10 11  1  0  0  0  0
 10 12  1  0  0  0  0
 10 13  1  0  0  0  0
M  END
> <VConfSearch Rank>
617

> <Conf_Id>
0

> <Delta U+W>
0.000

> <U+W>
-58.332

> <U>
8.390

> <W>
-66.722

> <W(PB)>
-68.455

> <W(SA)>
1.733

> <Valence>
6.333

> <Coulomb>
1.215

> <VdW>
0.842

> <VdW6>
-3.344

> <VdW12>
4.186

> <Bond>
0.091

> <Angle>
2.713

> <Pdih>
3.529

> <Idih>
0.000

> <Tether>
0.000

$$$$
VeraChem MOL file


 13 12  0  0  0  0  0  0  0  0999 V2000     
   19.8937   18.2780   23.7995 C   0  0  0  0  0  0  0  0  0  0  0  0
   20.5669   18.8561   24.6290 O   0  5  0  0  0  0  0  0  0  0  0  0
   19.5455   17.1193   23.9071 O   0  0  0  0  0  0  0  0  0  0  0  0
   19.4794   19.0424   22.5467 C   0  0  0  0  0  0  0  0  0  0  0  0
   19.3442   20.0963   22.8189 H   0  0  0  0  0  0  0  0  0  0  0  0
   18.5019   18.6640   22.2236 H   0  0  0  0  0  0  0  0  0  0  0  0
   20.5062   18.9171   21.3953 C   0  0  0  0  0  0  0  0  0  0  0  0
   21.4833   19.2897   21.7334 H   0  0  0  0  0  0  0  0  0  0  0  0
   20.6407   17.8572   21.1379 H   0  0  0  0  0  0  0  0  0  0  0  0
   20.0587   19.7002   20.1447 C   0  0  0  0  0  0  0  0  0  0  0  0
   20.7987   19.5994   19.3401 H   0  0  0  0  0  0  0  0  0  0  0  0
   19.0971   19.3254   19.7699 H   0  0  0  0  0  0  0  0  0  0  0  0
   19.9462   20.7689   20.3700 H   0  0  0  0  0  0  0  0  0  0  0  0
  1  2  1  0  0  0  0
  1  3  2  0  0  0  0
  1  4  1  0  0  0  0
  4  5  1  0  0  0  0
  4  6  1  0  0  0  0
  4  7  1  0  0  0  0
  7  8  1  0  0  0  0
  7  9  1  0  0  0  0
  7 10  1  0  0  0  0
 10 11  1  0  0  0  0
 10 12  1  0  0  0  0
 10 13  1  0  0  0  0
M  END
> <VConfSearch Rank>
618

> <Conf_Id>
1

> <Delta U+W>
-1.339

> <U+W>
-59.672

> <U>
7.389

> <W>
-67.061

> <W(PB)>
-68.767

> <W(SA)>
1.707

> <Valence>
5.822

> <Coulomb>
1.255

> <VdW>
0.312

> <VdW6>
-3.061

> <VdW12>
3.372

> <Bond>
0.059

> <Angle>
2.241

> <Pdih>
3.522

> <Idih>
0.000

> <Tether>
0.000

$$$$
VeraChem MOL file


 13 12  0  0  0  0  0  0  0  0999 V2000     
   19.6893   17.2809   21.5781 C   0  0  0  0  0  0  0  0  0  0  0  0
   19.7365   16.4764   22.4874 O   0  5  0  0  0  0  0  0  0  0  0  0
   18.8186   17.2836   20.7310 O   0  0  0  0  0  0  0  0  0  0  0  0
   20.8038   18.3193   21.4767 C   0  0  0  0  0  0  0  0  0  0  0  0
   20.7993   18.7419   20.4644 H   0  0  0  0  0  0  0  0  0  0  0  0
   21.7565   17.7892   21.5942 H   0  0  0  0  0  0  0  0  0  0  0  0
   20.7119   19.4538   22.5292 C   0  0  0  0  0  0  0  0  0  0  0  0
   20.6754   19.0179   23.5375 H   0  0  0  0  0  0  0  0  0  0  0  0
   21.6246   20.0635   22.4818 H   0  0  0  0  0  0  0  0  0  0  0  0
   19.4858   20.3642   22.3105 C   0  0  0  0  0  0  0  0  0  0  0  0
   18.5510   19.7943   22.3953 H   0  0  0  0  0  0  0  0  0  0  0  0
   19.4615   21.1669   23.0589 H   0  0  0  0  0  0  0  0  0  0  0  0
   19.5140   20.8281   21.3158 H   0  0  0  0  0  0  0  0  0  0  0  0
  1  2  1  0  0  0  0
  1  3  2  0  0  0  0
  1  4  1  0  0  0  0
  4  5  1  0  0  0  0
  4  6  1  0  0  0  0
  4  7  1  0  0  0  0
  7  8  1  0  0  0  0
  7  9  1  0  0  0  0
  7 10  1  0  0  0  0
 10 11  1  0  0  0  0
 10 12  1  0  0  0  0
 10 13  1  0  0  0  0
M  END
> <VConfSearch Rank>
619

> <Conf_Id>
4

> <Delta U+W>
0.281

> <U+W>
-58.051

> <U>
9.781

> <W>
-67.832

> <W(PB)>
-69.535

> <W(SA)>
1.703

> <Valence>
6.123

> <Coulomb>
3.449

> <VdW>
0.209

> <VdW6>
-3.762

> <VdW12>
3.972

> <Bond>
0.078

> <Angle>
2.428

> <Pdih>
3.616

> <Idih>
0.002

> <Tether>
0.000

$$$$
VeraChem MOL file


 13 12  0  0  0  0  0  0  0  0999 V2000     
   19.6663   17.2727   22.3627 C   0  0  0  0  0  0  0  0  0  0  0  0
   19.5723   17.1267   23.5651 O   0  5  0  0  0  0  0  0  0  0  0  0
   18.9283   16.7327   21.5628 O   0  0  0  0  0  0  0  0  0  0  0  0
   20.7923   18.1519   21.8242 C   0  0  0  0  0  0  0  0  0  0  0  0
   21.2879   17.5933   21.0213 H   0  0  0  0  0  0  0  0  0  0  0  0
   21.5367   18.2944   22.6172 H   0  0  0  0  0  0  0  0  0  0  0  0
   20.3207   19.5254   21.2815 C   0  0  0  0  0  0  0  0  0  0  0  0
   21.1628   20.0233   20.7816 H   0  0  0  0  0  0  0  0  0  0  0  0
   19.5456   19.3725   20.5175 H   0  0  0  0  0  0  0  0  0  0  0  0
   19.7801   20.4461   22.3951 C   0  0  0  0  0  0  0  0  0  0  0  0
   20.5470   20.6303   23.1588 H   0  0  0  0  0  0  0  0  0  0  0  0
   19.4737   21.4155   21.9808 H   0  0  0  0  0  0  0  0  0  0  0  0
   18.9073   19.9982   22.8885 H   0  0  0  0  0  0  0  0  0  0  0  0
  1  2  1  0  0  0  0
  1  3  2  0  0  0  0
  1  4  1  0  0  0  0
  4  5  1  0  0  0  0
  4  6  1  0  0  0  0
  4  7  1  0  0  0  0
  7  8  1  0  0  0  0
  7  9  1  0  0  0  0
  7 10  1  0  0  0  0
 10 11  1  0  0  0  0
 10 12  1  0  0  0  0
 10 13  1  0  0  0  0
M  END
> <VConfSearch Rank>
620

> <Conf_Id>
36

> <Delta U+W>
0.272

> <U+W>
-58.060

> <U>
9.781

> <W>
-67.841

> <W(PB)>
-69.537

> <W(SA)>
1.696

> <Valence>
6.123

> <Coulomb>
3.449

> <VdW>
0.209

> <VdW6>
-3.762

> <VdW12>
3.972

> <Bond>
0.078

> <Angle>
2.428

> <Pdih>
3.616

> <Idih>
0.002

> <Tether>
0.000

$$$$
VeraChem MOL file


 13 12  0  0  0  0  0  0  0  0999 V2000     
   18.5262   17.6051   21.2204 C   0  0  0  0  0  0  0  0  0  0  0  0
   17.5234   18.2303   21.5047 O   0  5  0  0  0  0  0  0  0  0  0  0
   18.4965   16.4938   20.7317 O   0  0  0  0  0  0  0  0  0  0  0  0
   19.9038   18.2189   21.4779 C   0  0  0  0  0  0  0  0  0  0  0  0
   20.4369   18.2411   20.5200 H   0  0  0  0  0  0  0  0  0  0  0  0
   20.4515   17.5313   22.1334 H   0  0  0  0  0  0  0  0  0  0  0  0
   19.8924   19.6386   22.1026 C   0  0  0  0  0  0  0  0  0  0  0  0
   19.3406   20.3254   21.4456 H   0  0  0  0  0  0  0  0  0  0  0  0
   19.3551   19.6147   23.0610 H   0  0  0  0  0  0  0  0  0  0  0  0
   21.3212   20.1742   22.3254 C   0  0  0  0  0  0  0  0  0  0  0  0
   21.8697   20.2370   21.3763 H   0  0  0  0  0  0  0  0  0  0  0  0
   21.2928   21.1786   22.7675 H   0  0  0  0  0  0  0  0  0  0  0  0
   21.8843   19.5207   23.0046 H   0  0  0  0  0  0  0  0  0  0  0  0
  1  2  1  0  0  0  0
  1  3  2  0  0  0  0
  1  4  1  0  0  0  0
  4  5  1  0  0  0  0
  4  6  1  0  0  0  0
  4  7  1  0  0  0  0
  7  8  1  0  0  0  0
  7  9  1  0  0  0  0
  7 10  1  0  0  0  0
 10 11  1  0  0  0  0
 10 12  1  0  0  0  0
 10 13  1  0  0  0  0
M  END
> <VConfSearch Rank>
621

> <Conf_Id>
0

> <Delta U+W>
0.000

> <U+W>
-58.332

> <U>
8.390

> <W>
-66.722

> <W(PB)>
-68.455

> <W(SA)>
1.733

> <Valence>
6.333

> <Coulomb>
1.215

> <VdW>
0.842

> <VdW6>
-3.344

> <VdW12>
4.186

> <Bond>
0.091

> <Angle>
2.713

> <Pdih>
3.529

> <Idih>
0.000

> <Tether>
0.000

$$$$
VeraChem MOL file


 13 12  0  0  0  0  0  0  0  0999 V2000     
   19.9460   18.3901   23.8411 C   0  0  0  0  0  0  0  0  0  0  0  0
   18.8463   18.1676   24.3065 O   0  5  0  0  0  0  0  0  0  0  0  0
   20.9147   18.6762   24.5157 O   0  0  0  0  0  0  0  0  0  0  0  0
   20.1150   18.3253   22.3270 C   0  0  0  0  0  0  0  0  0  0  0  0
   19.4286   17.5628   21.9391 H   0  0  0  0  0  0  0  0  0  0  0  0
   21.1343   17.9822   22.1116 H   0  0  0  0  0  0  0  0  0  0  0  0
   19.8517   19.6825   21.6310 C   0  0  0  0  0  0  0  0  0  0  0  0
   18.8319   20.0209   21.8617 H   0  0  0  0  0  0  0  0  0  0  0  0
   20.5380   20.4403   22.0341 H   0  0  0  0  0  0  0  0  0  0  0  0
   20.0305   19.5836   20.1027 C   0  0  0  0  0  0  0  0  0  0  0  0
   19.8398   20.5546   19.6274 H   0  0  0  0  0  0  0  0  0  0  0  0
   21.0525   19.2753   19.8459 H   0  0  0  0  0  0  0  0  0  0  0  0
   19.3333   18.8527   19.6722 H   0  0  0  0  0  0  0  0  0  0  0  0
  1  2  1  0  0  0  0
  1  3  2  0  0  0  0
  1  4  1  0  0  0  0
  4  5  1  0  0  0  0
  4  6  1  0  0  0  0
  4  7  1  0  0  0  0
  7  8  1  0  0  0  0
  7  9  1  0  0  0  0
  7 10  1  0  0  0  0
 10 11  1  0  0  0  0
 10 12  1  0  0  0  0
 10 13  1  0  0  0  0
M  END
> <VConfSearch Rank>
622

> <Conf_Id>
1

> <Delta U+W>
-1.339

> <U+W>
-59.672

> <U>
7.389

> <W>
-67.061

> <W(PB)>
-68.767

> <W(SA)>
1.707

> <Valence>
5.822

> <Coulomb>
1.255

> <VdW>
0.312

> <VdW6>
-3.061

> <VdW12>
3.372

> <Bond>
0.059

> <Angle>
2.241

> <Pdih>
3.522

> <Idih>
0.000

> <Tether>
0.000

$$$$
VeraChem MOL file


 13 12  0  0  0  0  0  0  0  0999 V2000     
   19.2667   18.8802   20.4266 C   0  0  0  0  0  0  0  0  0  0  0  0
   19.8369   18.2760   19.5401 O   0  5  0  0  0  0  0  0  0  0  0  0
   18.0693   18.8125   20.6203 O   0  0  0  0  0  0  0  0  0  0  0  0
   20.0955   19.7998   21.3200 C   0  0  0  0  0  0  0  0  0  0  0  0
   19.4190   20.4937   21.8339 H   0  0  0  0  0  0  0  0  0  0  0  0
   20.7323   20.4056   20.6644 H   0  0  0  0  0  0  0  0  0  0  0  0
   20.9799   19.0538   22.3519 C   0  0  0  0  0  0  0  0  0  0  0  0
   21.6241   18.3321   21.8305 H   0  0  0  0  0  0  0  0  0  0  0  0
   21.6471   19.7756   22.8425 H   0  0  0  0  0  0  0  0  0  0  0  0
   20.1465   18.3265   23.4273 C   0  0  0  0  0  0  0  0  0  0  0  0
   19.4980   17.5643   22.9753 H   0  0  0  0  0  0  0  0  0  0  0  0
   20.8020   17.8261   24.1518 H   0  0  0  0  0  0  0  0  0  0  0  0
   19.5109   19.0338   23.9761 H   0  0  0  0  0  0  0  0  0  0  0  0
  1  2  1  0  0  0  0
  1  3  2  0  0  0  0
  1  4  1  0  0  0  0
  4  5  1  0  0  0  0
  4  6  1  0  0  0  0
  4  7  1  0  0  0  0
  7  8  1  0  0  0  0
  7  9  1  0  0  0  0
  7 10  1  0  0  0  0
 10 11  1  0  0  0  0
 10 12  1  0  0  0  0
 10 13  1  0  0  0  0
M  END
> <VConfSearch Rank>
623

> <Conf_Id>
4

> <Delta U+W>
0.281

> <U+W>
-58.051

> <U>
9.781

> <W>
-67.832

> <W(PB)>
-69.535

> <W(SA)>
1.703

> <Valence>
6.123

> <Coulomb>
3.449

> <VdW>
0.209

> <VdW6>
-3.762

> <VdW12>
3.972

> <Bond>
0.078

> <Angle>
2.428

> <Pdih>
3.616

> <Idih>
0.002

> <Tether>
0.000

$$$$
VeraChem MOL file


 13 12  0  0  0  0  0  0  0  0999 V2000     
   21.3597   20.2300   21.7254 C   0  0  0  0  0  0  0  0  0  0  0  0
   21.7703   20.6340   22.7950 O   0  5  0  0  0  0  0  0  0  0  0  0
   22.0680   20.0799   20.7497 O   0  0  0  0  0  0  0  0  0  0  0  0
   19.8696   19.9284   21.5870 C   0  0  0  0  0  0  0  0  0  0  0  0
   19.5217   20.4137   20.6673 H   0  0  0  0  0  0  0  0  0  0  0  0
   19.3358   20.4054   22.4182 H   0  0  0  0  0  0  0  0  0  0  0  0
   19.5305   18.4167   21.5321 C   0  0  0  0  0  0  0  0  0  0  0  0
   18.4676   18.2951   21.2821 H   0  0  0  0  0  0  0  0  0  0  0  0
   20.1017   17.9408   20.7227 H   0  0  0  0  0  0  0  0  0  0  0  0
   19.8196   17.6980   22.8662 C   0  0  0  0  0  0  0  0  0  0  0  0
   19.2411   18.1441   23.6858 H   0  0  0  0  0  0  0  0  0  0  0  0
   19.5507   16.6358   22.7996 H   0  0  0  0  0  0  0  0  0  0  0  0
   20.8847   17.7614   23.1259 H   0  0  0  0  0  0  0  0  0  0  0  0
  1  2  1  0  0  0  0
  1  3  2  0  0  0  0
  1  4  1  0  0  0  0
  4  5  1  0  0  0  0
  4  6  1  0  0  0  0
  4  7  1  0  0  0  0
  7  8  1  0  0  0  0
  7  9  1  0  0  0  0
  7 10  1  0  0  0  0
 10 11  1  0  0  0  0
 10 12  1  0  0  0  0
 10 13  1  0  0  0  0
M  END
> <VConfSearch Rank>
624

> <Conf_Id>
36

> <Delta U+W>
0.272

> <U+W>
-58.060

> <U>
9.781

> <W>
-67.841

> <W(PB)>
-69.537

> <W(SA)>
1.696

> <Valence>
6.123

> <Coulomb>
3.449

> <VdW>
0.209

> <VdW6>
-3.762

> <VdW12>
3.972

> <Bond>
0.078

> <Angle>
2.428

> <Pdih>
3.616

> <Idih>
0.002

> <Tether>
0.000

$$$$
VeraChem MOL file


 13 12  0  0  0  0  0  0  0  0999 V2000     
   20.1942   20.2553   23.5367 C   0  0  0  0  0  0  0  0  0  0  0  0
   19.0739   20.1461   23.9952 O   0  5  0  0  0  0  0  0  0  0  0  0
   21.0553   20.9401   24.0509 O   0  0  0  0  0  0  0  0  0  0  0  0
   20.5674   19.5090   22.2544 C   0  0  0  0  0  0  0  0  0  0  0  0
   21.4314   18.8741   22.4844 H   0  0  0  0  0  0  0  0  0  0  0  0
   20.9041   20.2565   21.5263 H   0  0  0  0  0  0  0  0  0  0  0  0
   19.4366   18.6476   21.6338 C   0  0  0  0  0  0  0  0  0  0  0  0
   19.0986   17.9010   22.3661 H   0  0  0  0  0  0  0  0  0  0  0  0
   18.5707   19.2851   21.4069 H   0  0  0  0  0  0  0  0  0  0  0  0
   19.9035   17.9350   20.3486 C   0  0  0  0  0  0  0  0  0  0  0  0
   20.7500   17.2668   20.5551 H   0  0  0  0  0  0  0  0  0  0  0  0
   19.0908   17.3311   19.9244 H   0  0  0  0  0  0  0  0  0  0  0  0
   20.2179   18.6621   19.5882 H   0  0  0  0  0  0  0  0  0  0  0  0
  1  2  1  0  0  0  0
  1  3  2  0  0  0  0
  1  4  1  0  0  0  0
  4  5  1  0  0  0  0
  4  6  1  0  0  0  0
  4  7  1  0  0  0  0
  7  8  1  0  0  0  0
  7  9  1  0  0  0  0
  7 10  1  0  0  0  0
 10 11  1  0  0  0  0
 10 12  1  0  0  0  0
 10 13  1  0  0  0  0
M  END
> <VConfSearch Rank>
625

> <Conf_Id>
0

> <Delta U+W>
0.000

> <U+W>
-58.332

> <U>
8.390

> <W>
-66.722

> <W(PB)>
-68.455

> <W(SA)>
1.733

> <Valence>
6.333

> <Coulomb>
1.215

> <VdW>
0.842

> <VdW6>
-3.344

> <VdW12>
4.186

> <Bond>
0.091

> <Angle>
2.713

> <Pdih>
3.529

> <Idih>
0.000

> <Tether>
0.000

$$$$
VeraChem MOL file


 13 12  0  0  0  0  0  0  0  0999 V2000     
   20.7503   17.1505   22.3912 C   0  0  0  0  0  0  0  0  0  0  0  0
   20.6917   16.2800   21.5462 O   0  5  0  0  0  0  0  0  0  0  0  0
   20.7974   16.9258   23.5840 O   0  0  0  0  0  0  0  0  0  0  0  0
   20.7456   18.6043   21.9308 C   0  0  0  0  0  0  0  0  0  0  0  0
   21.2549   18.6568   20.9608 H   0  0  0  0  0  0  0  0  0  0  0  0
   21.3421   19.1894   22.6413 H   0  0  0  0  0  0  0  0  0  0  0  0
   19.3203   19.1972   21.8168 C   0  0  0  0  0  0  0  0  0  0  0  0
   18.7293   18.5976   21.1104 H   0  0  0  0  0  0  0  0  0  0  0  0
   18.8166   19.1304   22.7912 H   0  0  0  0  0  0  0  0  0  0  0  0
   19.3499   20.6663   21.3496 C   0  0  0  0  0  0  0  0  0  0  0  0
   18.3312   21.0689   21.2749 H   0  0  0  0  0  0  0  0  0  0  0  0
   19.9107   21.2920   22.0563 H   0  0  0  0  0  0  0  0  0  0  0  0
   19.8227   20.7551   20.3626 H   0  0  0  0  0  0  0  0  0  0  0  0
  1  2  1  0  0  0  0
  1  3  2  0  0  0  0
  1  4  1  0  0  0  0
  4  5  1  0  0  0  0
  4  6  1  0  0  0  0
  4  7  1  0  0  0  0
  7  8  1  0  0  0  0
  7  9  1  0  0  0  0
  7 10  1  0  0  0  0
 10 11  1  0  0  0  0
 10 12  1  0  0  0  0
 10 13  1  0  0  0  0
M  END
> <VConfSearch Rank>
626

> <Conf_Id>
1

> <Delta U+W>
-1.339

> <U+W>
-59.672

> <U>
7.389

> <W>
-67.061

> <W(PB)>
-68.767

> <W(SA)>
1.707

> <Valence>
5.822

> <Coulomb>
1.255

> <VdW>
0.312

> <VdW6>
-3.061

> <VdW12>
3.372

> <Bond>
0.059

> <Angle>
2.241

> <Pdih>
3.522

> <Idih>
0.000

> <Tether>
0.000

$$$$
VeraChem MOL file


 13 12  0  0  0  0  0  0  0  0999 V2000     
   19.8139   17.2183   22.2282 C   0  0  0  0  0  0  0  0  0  0  0  0
   20.7961   16.5066   22.2988 O   0  5  0  0  0  0  0  0  0  0  0  0
   18.8271   17.0683   22.9208 O   0  0  0  0  0  0  0  0  0  0  0  0
   19.8080   18.3367   21.1890 C   0  0  0  0  0  0  0  0  0  0  0  0
   18.7731   18.6640   21.0308 H   0  0  0  0  0  0  0  0  0  0  0  0
   20.1518   17.9046   20.2416 H   0  0  0  0  0  0  0  0  0  0  0  0
   20.7011   19.5494   21.5567 C   0  0  0  0  0  0  0  0  0  0  0  0
   21.7261   19.2050   21.7534 H   0  0  0  0  0  0  0  0  0  0  0  0
   20.7565   20.2297   20.6960 H   0  0  0  0  0  0  0  0  0  0  0  0
   20.1687   20.3256   22.7790 C   0  0  0  0  0  0  0  0  0  0  0  0
   20.1417   19.6862   23.6714 H   0  0  0  0  0  0  0  0  0  0  0  0
   20.8117   21.1875   23.0000 H   0  0  0  0  0  0  0  0  0  0  0  0
   19.1525   20.6982   22.5950 H   0  0  0  0  0  0  0  0  0  0  0  0
  1  2  1  0  0  0  0
  1  3  2  0  0  0  0
  1  4  1  0  0  0  0
  4  5  1  0  0  0  0
  4  6  1  0  0  0  0
  4  7  1  0  0  0  0
  7  8  1  0  0  0  0
  7  9  1  0  0  0  0
  7 10  1  0  0  0  0
 10 11  1  0  0  0  0
 10 12  1  0  0  0  0
 10 13  1  0  0  0  0
M  END
> <VConfSearch Rank>
627

> <Conf_Id>
4

> <Delta U+W>
0.281

> <U+W>
-58.051

> <U>
9.781

> <W>
-67.832

> <W(PB)>
-69.535

> <W(SA)>
1.703

> <Valence>
6.123

> <Coulomb>
3.449

> <VdW>
0.209

> <VdW6>
-3.762

> <VdW12>
3.972

> <Bond>
0.078

> <Angle>
2.428

> <Pdih>
3.616

> <Idih>
0.002

> <Tether>
0.000

$$$$
VeraChem MOL file


 13 12  0  0  0  0  0  0  0  0999 V2000     
   19.4106   17.7512   23.1063 C   0  0  0  0  0  0  0  0  0  0  0  0
   18.2812   18.0820   23.4079 O   0  5  0  0  0  0  0  0  0  0  0  0
   19.7416   16.5981   22.9137 O   0  0  0  0  0  0  0  0  0  0  0  0
   20.4799   18.8353   22.9978 C   0  0  0  0  0  0  0  0  0  0  0  0
   21.3538   18.4904   23.5633 H   0  0  0  0  0  0  0  0  0  0  0  0
   20.1151   19.7402   23.4993 H   0  0  0  0  0  0  0  0  0  0  0  0
   20.9042   19.1650   21.5436 C   0  0  0  0  0  0  0  0  0  0  0  0
   21.7735   19.8364   21.5658 H   0  0  0  0  0  0  0  0  0  0  0  0
   21.2286   18.2449   21.0377 H   0  0  0  0  0  0  0  0  0  0  0  0
   19.7724   19.8327   20.7355 C   0  0  0  0  0  0  0  0  0  0  0  0
   19.4480   20.7669   21.2124 H   0  0  0  0  0  0  0  0  0  0  0  0
   20.1113   20.0704   19.7187 H   0  0  0  0  0  0  0  0  0  0  0  0
   18.9008   19.1697   20.6550 H   0  0  0  0  0  0  0  0  0  0  0  0
  1  2  1  0  0  0  0
  1  3  2  0  0  0  0
  1  4  1  0  0  0  0
  4  5  1  0  0  0  0
  4  6  1  0  0  0  0
  4  7  1  0  0  0  0
  7  8  1  0  0  0  0
  7  9  1  0  0  0  0
  7 10  1  0  0  0  0
 10 11  1  0  0  0  0
 10 12  1  0  0  0  0
 10 13  1  0  0  0  0
M  END
> <VConfSearch Rank>
628

> <Conf_Id>
36

> <Delta U+W>
0.272

> <U+W>
-58.060

> <U>
9.781

> <W>
-67.841

> <W(PB)>
-69.537

> <W(SA)>
1.696

> <Valence>
6.123

> <Coulomb>
3.449

> <VdW>
0.209

> <VdW6>
-3.762

> <VdW12>
3.972

> <Bond>
0.078

> <Angle>
2.428

> <Pdih>
3.616

> <Idih>
0.002

> <Tether>
0.000

$$$$
VeraChem MOL file


 13 12  0  0  0  0  0  0  0  0999 V2000     
   20.8979   20.9175   22.1489 C   0  0  0  0  0  0  0  0  0  0  0  0
   21.5315   20.6935   23.1617 O   0  5  0  0  0  0  0  0  0  0  0  0
   20.8824   22.0032   21.6050 O   0  0  0  0  0  0  0  0  0  0  0  0
   20.0719   19.8017   21.5060 C   0  0  0  0  0  0  0  0  0  0  0  0
   20.4263   19.6840   20.4751 H   0  0  0  0  0  0  0  0  0  0  0  0
   19.0345   20.1526   21.4499 H   0  0  0  0  0  0  0  0  0  0  0  0
   20.1219   18.4335   22.2351 C   0  0  0  0  0  0  0  0  0  0  0  0
   21.1625   18.0850   22.2929 H   0  0  0  0  0  0  0  0  0  0  0  0
   19.7691   18.5543   23.2689 H   0  0  0  0  0  0  0  0  0  0  0  0
   19.2620   17.3738   21.5171 C   0  0  0  0  0  0  0  0  0  0  0  0
   19.6146   17.2120   20.4899 H   0  0  0  0  0  0  0  0  0  0  0  0
   19.3098   16.4135   22.0470 H   0  0  0  0  0  0  0  0  0  0  0  0
   18.2100   17.6850   21.4738 H   0  0  0  0  0  0  0  0  0  0  0  0
  1  2  1  0  0  0  0
  1  3  2  0  0  0  0
  1  4  1  0  0  0  0
  4  5  1  0  0  0  0
  4  6  1  0  0  0  0
  4  7  1  0  0  0  0
  7  8  1  0  0  0  0
  7  9  1  0  0  0  0
  7 10  1  0  0  0  0
 10 11  1  0  0  0  0
 10 12  1  0  0  0  0
 10 13  1  0  0  0  0
M  END
> <VConfSearch Rank>
629

> <Conf_Id>
0

> <Delta U+W>
0.000

> <U+W>
-58.332

> <U>
8.390

> <W>
-66.722

> <W(PB)>
-68.455

> <W(SA)>
1.733

> <Valence>
6.333

> <Coulomb>
1.215

> <VdW>
0.842

> <VdW6>
-3.344

> <VdW12>
4.186

> <Bond>
0.091

> <Angle>
2.713

> <Pdih>
3.529

> <Idih>
0.000

> <Tether>
0.000

$$$$
VeraChem MOL file


 13 12  0  0  0  0  0  0  0  0999 V2000     
   17.8871   18.9606   22.0170 C   0  0  0  0  0  0  0  0  0  0  0  0
   17.3668   19.8932   22.5955 O   0  5  0  0  0  0  0  0  0  0  0  0
   17.3851   17.8576   21.9348 O   0  0  0  0  0  0  0  0  0  0  0  0
   19.2529   19.1811   21.3755 C   0  0  0  0  0  0  0  0  0  0  0  0
   19.3044   20.2212   21.0311 H   0  0  0  0  0  0  0  0  0  0  0  0
   19.3195   18.5425   20.4862 H   0  0  0  0  0  0  0  0  0  0  0  0
   20.4278   18.8795   22.3370 C   0  0  0  0  0  0  0  0  0  0  0  0
   20.3452   19.5176   23.2280 H   0  0  0  0  0  0  0  0  0  0  0  0
   20.3604   17.8386   22.6829 H   0  0  0  0  0  0  0  0  0  0  0  0
   21.7930   19.1119   21.6592 C   0  0  0  0  0  0  0  0  0  0  0  0
   22.6128   18.8931   22.3559 H   0  0  0  0  0  0  0  0  0  0  0  0
   21.9115   18.4627   20.7817 H   0  0  0  0  0  0  0  0  0  0  0  0
   21.8962   20.1546   21.3311 H   0  0  0  0  0  0  0  0  0  0  0  0
  1  2  1  0  0  0  0
  1  3  2  0  0  0  0
  1  4  1  0  0  0  0
  4  5  1  0  0  0  0
  4  6  1  0  0  0  0
  4  7  1  0  0  0  0
  7  8  1  0  0  0  0
  7  9  1  0  0  0  0
  7 10  1  0  0  0  0
 10 11  1  0  0  0  0
 10 12  1  0  0  0  0
 10 13  1  0  0  0  0
M  END
> <VConfSearch Rank>
630

> <Conf_Id>
1

> <Delta U+W>
-1.339

> <U+W>
-59.672

> <U>
7.389

> <W>
-67.061

> <W(PB)>
-68.767

> <W(SA)>
1.707

> <Valence>
5.822

> <Coulomb>
1.255

> <VdW>
0.312

> <VdW6>
-3.061

> <VdW12>
3.372

> <Bond>
0.059

> <Angle>
2.241

> <Pdih>
3.522

> <Idih>
0.000

> <Tether>
0.000

$$$$
VeraChem MOL file


 13 12  0  0  0  0  0  0  0  0999 V2000     
   21.6328   18.0183   22.1888 C   0  0  0  0  0  0  0  0  0  0  0  0
   21.6785   16.9630   21.5884 O   0  5  0  0  0  0  0  0  0  0  0  0
   22.5794   18.7731   22.2892 O   0  0  0  0  0  0  0  0  0  0  0  0
   20.3265   18.3962   22.8827 C   0  0  0  0  0  0  0  0  0  0  0  0
   20.5351   19.1791   23.6222 H   0  0  0  0  0  0  0  0  0  0  0  0
   19.9862   17.5159   23.4410 H   0  0  0  0  0  0  0  0  0  0  0  0
   19.2057   18.8592   21.9169 C   0  0  0  0  0  0  0  0  0  0  0  0
   19.0334   18.0855   21.1556 H   0  0  0  0  0  0  0  0  0  0  0  0
   18.2673   18.9640   22.4784 H   0  0  0  0  0  0  0  0  0  0  0  0
   19.5348   20.2011   21.2307 C   0  0  0  0  0  0  0  0  0  0  0  0
   20.4457   20.1206   20.6228 H   0  0  0  0  0  0  0  0  0  0  0  0
   18.7139   20.5094   20.5702 H   0  0  0  0  0  0  0  0  0  0  0  0
   19.6890   20.9945   21.9738 H   0  0  0  0  0  0  0  0  0  0  0  0
  1  2  1  0  0  0  0
  1  3  2  0  0  0  0
  1  4  1  0  0  0  0
  4  5  1  0  0  0  0
  4  6  1  0  0  0  0
  4  7  1  0  0  0  0
  7  8  1  0  0  0  0
  7  9  1  0  0  0  0
  7 10  1  0  0  0  0
 10 11  1  0  0  0  0
 10 12  1  0  0  0  0
 10 13  1  0  0  0  0
M  END
> <VConfSearch Rank>
631

> <Conf_Id>
4

> <Delta U+W>
0.281

> <U+W>
-58.051

> <U>
9.781

> <W>
-67.832

> <W(PB)>
-69.535

> <W(SA)>
1.703

> <Valence>
6.123

> <Coulomb>
3.449

> <VdW>
0.209

> <VdW6>
-3.762

> <VdW12>
3.972

> <Bond>
0.078

> <Angle>
2.428

> <Pdih>
3.616

> <Idih>
0.002

> <Tether>
0.000

$$$$
VeraChem MOL file


 13 12  0  0  0  0  0  0  0  0999 V2000     
   20.4519   19.7656   23.5659 C   0  0  0  0  0  0  0  0  0  0  0  0
   21.5689   20.2429   23.5500 O   0  5  0  0  0  0  0  0  0  0  0  0
   19.5033   20.2992   24.1060 O   0  0  0  0  0  0  0  0  0  0  0  0
   20.2336   18.4072   22.9042 C   0  0  0  0  0  0  0  0  0  0  0  0
   19.6773   17.7833   23.6139 H   0  0  0  0  0  0  0  0  0  0  0  0
   21.2089   17.9271   22.7573 H   0  0  0  0  0  0  0  0  0  0  0  0
   19.4628   18.4723   21.5607 C   0  0  0  0  0  0  0  0  0  0  0  0
   19.2203   17.4515   21.2351 H   0  0  0  0  0  0  0  0  0  0  0  0
   18.5058   18.9916   21.7106 H   0  0  0  0  0  0  0  0  0  0  0  0
   20.2697   19.1769   20.4506 C   0  0  0  0  0  0  0  0  0  0  0  0
   21.2214   18.6604   20.2691 H   0  0  0  0  0  0  0  0  0  0  0  0
   19.7046   19.1885   19.5096 H   0  0  0  0  0  0  0  0  0  0  0  0
   20.4923   20.2169   20.7241 H   0  0  0  0  0  0  0  0  0  0  0  0
  1  2  1  0  0  0  0
  1  3  2  0  0  0  0
  1  4  1  0  0  0  0
  4  5  1  0  0  0  0
  4  6  1  0  0  0  0
  4  7  1  0  0  0  0
  7  8  1  0  0  0  0
  7  9  1  0  0  0  0
  7 10  1  0  0  0  0
 10 11  1  0  0  0  0
 10 12  1  0  0  0  0
 10 13  1  0  0  0  0
M  END
> <VConfSearch Rank>
632

> <Conf_Id>
36

> <Delta U+W>
0.272

> <U+W>
-58.060

> <U>
9.781

> <W>
-67.841

> <W(PB)>
-69.537

> <W(SA)>
1.696

> <Valence>
6.123

> <Coulomb>
3.449

> <VdW>
0.209

> <VdW6>
-3.762

> <VdW12>
3.972

> <Bond>
0.078

> <Angle>
2.428

> <Pdih>
3.616

> <Idih>
0.002

> <Tether>
0.000

$$$$
VeraChem MOL file


 13 12  0  0  0  0  0  0  0  0999 V2000     
   22.0050   19.7862   21.7879 C   0  0  0  0  0  0  0  0  0  0  0  0
   22.6454   18.7541   21.8306 O   0  5  0  0  0  0  0  0  0  0  0  0
   22.5221   20.8841   21.7426 O   0  0  0  0  0  0  0  0  0  0  0  0
   20.4759   19.7333   21.7905 C   0  0  0  0  0  0  0  0  0  0  0  0
   20.1287   20.2490   20.8873 H   0  0  0  0  0  0  0  0  0  0  0  0
   20.1291   20.3216   22.6484 H   0  0  0  0  0  0  0  0  0  0  0  0
   19.8604   18.3108   21.8493 C   0  0  0  0  0  0  0  0  0  0  0  0
   20.2115   17.7220   20.9903 H   0  0  0  0  0  0  0  0  0  0  0  0
   20.2120   17.7947   22.7536 H   0  0  0  0  0  0  0  0  0  0  0  0
   18.3191   18.3567   21.8478 C   0  0  0  0  0  0  0  0  0  0  0  0
   17.9413   18.8410   20.9378 H   0  0  0  0  0  0  0  0  0  0  0  0
   17.9021   17.3420   21.8898 H   0  0  0  0  0  0  0  0  0  0  0  0
   17.9418   18.9143   22.7152 H   0  0  0  0  0  0  0  0  0  0  0  0
  1  2  1  0  0  0  0
  1  3  2  0  0  0  0
  1  4  1  0  0  0  0
  4  5  1  0  0  0  0
  4  6  1  0  0  0  0
  4  7  1  0  0  0  0
  7  8  1  0  0  0  0
  7  9  1  0  0  0  0
  7 10  1  0  0  0  0
 10 11  1  0  0  0  0
 10 12  1  0  0  0  0
 10 13  1  0  0  0  0
M  END
> <VConfSearch Rank>
633

> <Conf_Id>
0

> <Delta U+W>
0.000

> <U+W>
-58.332

> <U>
8.390

> <W>
-66.722

> <W(PB)>
-68.455

> <W(SA)>
1.733

> <Valence>
6.333

> <Coulomb>
1.215

> <VdW>
0.842

> <VdW6>
-3.344

> <VdW12>
4.186

> <Bond>
0.091

> <Angle>
2.713

> <Pdih>
3.529

> <Idih>
0.000

> <Tether>
0.000

$$$$
VeraChem MOL file


 13 12  0  0  0  0  0  0  0  0999 V2000     
   20.3618   18.1516   19.9523 C   0  0  0  0  0  0  0  0  0  0  0  0
   19.8318   18.6823   18.9969 O   0  5  0  0  0  0  0  0  0  0  0  0
   20.6984   16.9847   19.9705 O   0  0  0  0  0  0  0  0  0  0  0  0
   20.6003   18.9907   21.2031 C   0  0  0  0  0  0  0  0  0  0  0  0
   20.7960   20.0233   20.8893 H   0  0  0  0  0  0  0  0  0  0  0  0
   21.5107   18.6233   21.6922 H   0  0  0  0  0  0  0  0  0  0  0  0
   19.4109   18.9512   22.1930 C   0  0  0  0  0  0  0  0  0  0  0  0
   18.5030   19.3118   21.6896 H   0  0  0  0  0  0  0  0  0  0  0  0
   19.2179   17.9116   22.4927 H   0  0  0  0  0  0  0  0  0  0  0  0
   19.6829   19.8084   23.4454 C   0  0  0  0  0  0  0  0  0  0  0  0
   18.8294   19.7679   24.1346 H   0  0  0  0  0  0  0  0  0  0  0  0
   20.5700   19.4482   23.9828 H   0  0  0  0  0  0  0  0  0  0  0  0
   19.8496   20.8591   23.1736 H   0  0  0  0  0  0  0  0  0  0  0  0
  1  2  1  0  0  0  0
  1  3  2  0  0  0  0
  1  4  1  0  0  0  0
  4  5  1  0  0  0  0
  4  6  1  0  0  0  0
  4  7  1  0  0  0  0
  7  8  1  0  0  0  0
  7  9  1  0  0  0  0
  7 10  1  0  0  0  0
 10 11  1  0  0  0  0
 10 12  1  0  0  0  0
 10 13  1  0  0  0  0
M  END
> <VConfSearch Rank>
634

> <Conf_Id>
1

> <Delta U+W>
-1.339

> <U+W>
-59.672

> <U>
7.389

> <W>
-67.061

> <W(PB)>
-68.767

> <W(SA)>
1.707

> <Valence>
5.822

> <Coulomb>
1.255

> <VdW>
0.312

> <VdW6>
-3.061

> <VdW12>
3.372

> <Bond>
0.059

> <Angle>
2.241

> <Pdih>
3.522

> <Idih>
0.000

> <Tether>
0.000

$$$$
VeraChem MOL file


 13 12  0  0  0  0  0  0  0  0999 V2000     
   19.5782   17.8736   23.3063 C   0  0  0  0  0  0  0  0  0  0  0  0
   19.9715   18.1414   24.4242 O   0  5  0  0  0  0  0  0  0  0  0  0
   18.4524   17.4842   23.0680 O   0  0  0  0  0  0  0  0  0  0  0  0
   20.5633   17.9996   22.1468 C   0  0  0  0  0  0  0  0  0  0  0  0
   20.1740   17.4332   21.2918 H   0  0  0  0  0  0  0  0  0  0  0  0
   21.4945   17.5088   22.4540 H   0  0  0  0  0  0  0  0  0  0  0  0
   20.8650   19.4609   21.7264 C   0  0  0  0  0  0  0  0  0  0  0  0
   21.2150   20.0299   22.5992 H   0  0  0  0  0  0  0  0  0  0  0  0
   21.6872   19.4633   20.9977 H   0  0  0  0  0  0  0  0  0  0  0  0
   19.6391   20.1616   21.1051 C   0  0  0  0  0  0  0  0  0  0  0  0
   18.8101   20.2169   21.8231 H   0  0  0  0  0  0  0  0  0  0  0  0
   19.8917   21.1857   20.8010 H   0  0  0  0  0  0  0  0  0  0  0  0
   19.2862   19.6209   20.2171 H   0  0  0  0  0  0  0  0  0  0  0  0
  1  2  1  0  0  0  0
  1  3  2  0  0  0  0
  1  4  1  0  0  0  0
  4  5  1  0  0  0  0
  4  6  1  0  0  0  0
  4  7  1  0  0  0  0
  7  8  1  0  0  0  0
  7  9  1  0  0  0  0
  7 10  1  0  0  0  0
 10 11  1  0  0  0  0
 10 12  1  0  0  0  0
 10 13  1  0  0  0  0
M  END
> <VConfSearch Rank>
635

> <Conf_Id>
4

> <Delta U+W>
0.281

> <U+W>
-58.051

> <U>
9.781

> <W>
-67.832

> <W(PB)>
-69.535

> <W(SA)>
1.703

> <Valence>
6.123

> <Coulomb>
3.449

> <VdW>
0.209

> <VdW6>
-3.762

> <VdW12>
3.972

> <Bond>
0.078

> <Angle>
2.428

> <Pdih>
3.616

> <Idih>
0.002

> <Tether>
0.000

$$$$
VeraChem MOL file


 13 12  0  0  0  0  0  0  0  0999 V2000     
   19.3012   20.0901   23.1307 C   0  0  0  0  0  0  0  0  0  0  0  0
   20.0622   20.9872   23.4340 O   0  5  0  0  0  0  0  0  0  0  0  0
   18.1101   20.2531   22.9552 O   0  0  0  0  0  0  0  0  0  0  0  0
   19.8622   18.6765   22.9976 C   0  0  0  0  0  0  0  0  0  0  0  0
   19.2021   18.0081   23.5631 H   0  0  0  0  0  0  0  0  0  0  0  0
   20.8436   18.6404   23.4863 H   0  0  0  0  0  0  0  0  0  0  0  0
   19.9751   18.1737   21.5355 C   0  0  0  0  0  0  0  0  0  0  0  0
   20.2403   17.1076   21.5410 H   0  0  0  0  0  0  0  0  0  0  0  0
   18.9959   18.2529   21.0427 H   0  0  0  0  0  0  0  0  0  0  0  0
   21.0314   18.9514   20.7235 C   0  0  0  0  0  0  0  0  0  0  0  0
   22.0231   18.8669   21.1870 H   0  0  0  0  0  0  0  0  0  0  0  0
   21.0998   18.5582   19.7009 H   0  0  0  0  0  0  0  0  0  0  0  0
   20.7740   20.0170   20.6596 H   0  0  0  0  0  0  0  0  0  0  0  0
  1  2  1  0  0  0  0
  1  3  2  0  0  0  0
  1  4  1  0  0  0  0
  4  5  1  0  0  0  0
  4  6  1  0  0  0  0
  4  7  1  0  0  0  0
  7  8  1  0  0  0  0
  7  9  1  0  0  0  0
  7 10  1  0  0  0  0
 10 11  1  0  0  0  0
 10 12  1  0  0  0  0
 10 13  1  0  0  0  0
M  END
> <VConfSearch Rank>
636

> <Conf_Id>
36

> <Delta U+W>
0.272

> <U+W>
-58.060

> <U>
9.781

> <W>
-67.841

> <W(PB)>
-69.537

> <W(SA)>
1.696

> <Valence>
6.123

> <Coulomb>
3.449

> <VdW>
0.209

> <VdW6>
-3.762

> <VdW12>
3.972

> <Bond>
0.078

> <Angle>
2.428

> <Pdih>
3.616

> <Idih>
0.002

> <Tether>
0.000

$$$$
VeraChem MOL file


 13 12  0  0  0  0  0  0  0  0999 V2000     
   21.9969   19.7127   22.1989 C   0  0  0  0  0  0  0  0  0  0  0  0
   22.1766   20.3858   21.2028 O   0  5  0  0  0  0  0  0  0  0  0  0
   22.8302   19.5907   23.0738 O   0  0  0  0  0  0  0  0  0  0  0  0
   20.6712   18.9730   22.3881 C   0  0  0  0  0  0  0  0  0  0  0  0
   20.2384   19.3134   23.3363 H   0  0  0  0  0  0  0  0  0  0  0  0
   20.9040   17.9081   22.5064 H   0  0  0  0  0  0  0  0  0  0  0  0
   19.6381   19.1581   21.2459 C   0  0  0  0  0  0  0  0  0  0  0  0
   19.4083   20.2262   21.1271 H   0  0  0  0  0  0  0  0  0  0  0  0
   20.0748   18.8192   20.2961 H   0  0  0  0  0  0  0  0  0  0  0  0
   18.3370   18.3782   21.5229 C   0  0  0  0  0  0  0  0  0  0  0  0
   17.8640   18.7206   22.4527 H   0  0  0  0  0  0  0  0  0  0  0  0
   17.6190   18.5212   20.7048 H   0  0  0  0  0  0  0  0  0  0  0  0
   18.5359   17.3023   21.6151 H   0  0  0  0  0  0  0  0  0  0  0  0
  1  2  1  0  0  0  0
  1  3  2  0  0  0  0
  1  4  1  0  0  0  0
  4  5  1  0  0  0  0
  4  6  1  0  0  0  0
  4  7  1  0  0  0  0
  7  8  1  0  0  0  0
  7  9  1  0  0  0  0
  7 10  1  0  0  0  0
 10 11  1  0  0  0  0
 10 12  1  0  0  0  0
 10 13  1  0  0  0  0
M  END
> <VConfSearch Rank>
637

> <Conf_Id>
0

> <Delta U+W>
0.000

> <U+W>
-58.332

> <U>
8.390

> <W>
-66.722

> <W(PB)>
-68.455

> <W(SA)>
1.733

> <Valence>
6.333

> <Coulomb>
1.215

> <VdW>
0.842

> <VdW6>
-3.344

> <VdW12>
4.186

> <Bond>
0.091

> <Angle>
2.713

> <Pdih>
3.529

> <Idih>
0.000

> <Tether>
0.000

$$$$
VeraChem MOL file


 13 12  0  0  0  0  0  0  0  0999 V2000     
   19.6182   20.7950   22.9459 C   0  0  0  0  0  0  0  0  0  0  0  0
   18.4587   21.0051   23.2405 O   0  5  0  0  0  0  0  0  0  0  0  0
   20.4578   21.6686   22.8611 O   0  0  0  0  0  0  0  0  0  0  0  0
   20.0381   19.3596   22.6482 C   0  0  0  0  0  0  0  0  0  0  0  0
   19.4340   18.6905   23.2730 H   0  0  0  0  0  0  0  0  0  0  0  0
   21.0826   19.2377   22.9602 H   0  0  0  0  0  0  0  0  0  0  0  0
   19.8805   18.9812   21.1556 C   0  0  0  0  0  0  0  0  0  0  0  0
   18.8330   19.1164   20.8519 H   0  0  0  0  0  0  0  0  0  0  0  0
   20.4820   19.6637   20.5390 H   0  0  0  0  0  0  0  0  0  0  0  0
   20.3127   17.5256   20.8879 C   0  0  0  0  0  0  0  0  0  0  0  0
   20.1939   17.2761   19.8253 H   0  0  0  0  0  0  0  0  0  0  0  0
   21.3664   17.3731   21.1561 H   0  0  0  0  0  0  0  0  0  0  0  0
   19.7048   16.8217   21.4714 H   0  0  0  0  0  0  0  0  0  0  0  0
  1  2  1  0  0  0  0
  1  3  2  0  0  0  0
  1  4  1  0  0  0  0
  4  5  1  0  0  0  0
  4  6  1  0  0  0  0
  4  7  1  0  0  0  0
  7  8  1  0  0  0  0
  7  9  1  0  0  0  0
  7 10  1  0  0  0  0
 10 11  1  0  0  0  0
 10 12  1  0  0  0  0
 10 13  1  0  0  0  0
M  END
> <VConfSearch Rank>
638

> <Conf_Id>
1

> <Delta U+W>
-1.339

> <U+W>
-59.672

> <U>
7.389

> <W>
-67.061

> <W(PB)>
-68.767

> <W(SA)>
1.707

> <Valence>
5.822

> <Coulomb>
1.255

> <VdW>
0.312

> <VdW6>
-3.061

> <VdW12>
3.372

> <Bond>
0.059

> <Angle>
2.241

> <Pdih>
3.522

> <Idih>
0.000

> <Tether>
0.000

$$$$
VeraChem MOL file


 13 12  0  0  0  0  0  0  0  0999 V2000     
   21.7892   19.5981   22.2083 C   0  0  0  0  0  0  0  0  0  0  0  0
   22.6752   18.7672   22.2325 O   0  5  0  0  0  0  0  0  0  0  0  0
   21.8925   20.6709   21.6476 O   0  0  0  0  0  0  0  0  0  0  0  0
   20.4922   19.2901   22.9525 C   0  0  0  0  0  0  0  0  0  0  0  0
   19.9448   20.2279   23.1076 H   0  0  0  0  0  0  0  0  0  0  0  0
   20.7663   18.9155   23.9459 H   0  0  0  0  0  0  0  0  0  0  0  0
   19.5843   18.2530   22.2429 C   0  0  0  0  0  0  0  0  0  0  0  0
   20.1546   17.3324   22.0553 H   0  0  0  0  0  0  0  0  0  0  0  0
   18.7572   17.9809   22.9126 H   0  0  0  0  0  0  0  0  0  0  0  0
   19.0042   18.7860   20.9164 C   0  0  0  0  0  0  0  0  0  0  0  0
   19.8045   19.0271   20.2043 H   0  0  0  0  0  0  0  0  0  0  0  0
   18.3517   18.0361   20.4506 H   0  0  0  0  0  0  0  0  0  0  0  0
   18.4114   19.6946   21.0844 H   0  0  0  0  0  0  0  0  0  0  0  0
  1  2  1  0  0  0  0
  1  3  2  0  0  0  0
  1  4  1  0  0  0  0
  4  5  1  0  0  0  0
  4  6  1  0  0  0  0
  4  7  1  0  0  0  0
  7  8  1  0  0  0  0
  7  9  1  0  0  0  0
  7 10  1  0  0  0  0
 10 11  1  0  0  0  0
 10 12  1  0  0  0  0
 10 13  1  0  0  0  0
M  END
> <VConfSearch Rank>
639

> <Conf_Id>
4

> <Delta U+W>
0.281

> <U+W>
-58.051

> <U>
9.781

> <W>
-67.832

> <W(PB)>
-69.535

> <W(SA)>
1.703

> <Valence>
6.123

> <Coulomb>
3.449

> <VdW>
0.209

> <VdW6>
-3.762

> <VdW12>
3.972

> <Bond>
0.078

> <Angle>
2.428

> <Pdih>
3.616

> <Idih>
0.002

> <Tether>
0.000

$$$$
VeraChem MOL file


 13 12  0  0  0  0  0  0  0  0999 V2000     
   21.6205   19.5748   21.2339 C   0  0  0  0  0  0  0  0  0  0  0  0
   21.3636   20.5334   20.5332 O   0  5  0  0  0  0  0  0  0  0  0  0
   22.6311   19.4857   21.9024 O   0  0  0  0  0  0  0  0  0  0  0  0
   20.6411   18.4038   21.2493 C   0  0  0  0  0  0  0  0  0  0  0  0
   21.2256   17.4868   21.1083 H   0  0  0  0  0  0  0  0  0  0  0  0
   19.9750   18.4913   20.3821 H   0  0  0  0  0  0  0  0  0  0  0  0
   19.8090   18.2896   22.5523 C   0  0  0  0  0  0  0  0  0  0  0  0
   19.2486   17.3448   22.5398 H   0  0  0  0  0  0  0  0  0  0  0  0
   20.4851   18.2442   23.4176 H   0  0  0  0  0  0  0  0  0  0  0  0
   18.8192   19.4602   22.7252 C   0  0  0  0  0  0  0  0  0  0  0  0
   18.1192   19.5102   21.8810 H   0  0  0  0  0  0  0  0  0  0  0  0
   18.2333   19.3387   23.6456 H   0  0  0  0  0  0  0  0  0  0  0  0
   19.3497   20.4198   22.7864 H   0  0  0  0  0  0  0  0  0  0  0  0
  1  2  1  0  0  0  0
  1  3  2  0  0  0  0
  1  4  1  0  0  0  0
  4  5  1  0  0  0  0
  4  6  1  0  0  0  0
  4  7  1  0  0  0  0
  7  8  1  0  0  0  0
  7  9  1  0  0  0  0
  7 10  1  0  0  0  0
 10 11  1  0  0  0  0
 10 12  1  0  0  0  0
 10 13  1  0  0  0  0
M  END
> <VConfSearch Rank>
640

> <Conf_Id>
36

> <Delta U+W>
0.272

> <U+W>
-58.060

> <U>
9.781

> <W>
-67.841

> <W(PB)>
-69.537

> <W(SA)>
1.696

> <Valence>
6.123

> <Coulomb>
3.449

> <VdW>
0.209

> <VdW6>
-3.762

> <VdW12>
3.972

> <Bond>
0.078

> <Angle>
2.428

> <Pdih>
3.616

> <Idih>
0.002

> <Tether>
0.000

$$$$
VeraChem MOL file


 13 12  0  0  0  0  0  0  0  0999 V2000     
   18.0441   19.6556   21.3693 C   0  0  0  0  0  0  0  0  0  0  0  0
   17.4604   18.5894   21.3671 O   0  5  0  0  0  0  0  0  0  0  0  0
   17.4892   20.7137   21.1515 O   0  0  0  0  0  0  0  0  0  0  0  0
   19.5463   19.6999   21.6557 C   0  0  0  0  0  0  0  0  0  0  0  0
   19.6961   20.3601   22.5183 H   0  0  0  0  0  0  0  0  0  0  0  0
   20.0296   20.1806   20.7969 H   0  0  0  0  0  0  0  0  0  0  0  0
   20.2116   18.3255   21.9279 C   0  0  0  0  0  0  0  0  0  0  0  0
   19.7239   17.8441   22.7871 H   0  0  0  0  0  0  0  0  0  0  0  0
   20.0578   17.6645   21.0635 H   0  0  0  0  0  0  0  0  0  0  0  0
   21.7217   18.4687   22.2055 C   0  0  0  0  0  0  0  0  0  0  0  0
   21.9013   19.1008   23.0851 H   0  0  0  0  0  0  0  0  0  0  0  0
   22.1746   17.4869   22.3955 H   0  0  0  0  0  0  0  0  0  0  0  0
   22.2378   18.9197   21.3477 H   0  0  0  0  0  0  0  0  0  0  0  0
  1  2  1  0  0  0  0
  1  3  2  0  0  0  0
  1  4  1  0  0  0  0
  4  5  1  0  0  0  0
  4  6  1  0  0  0  0
  4  7  1  0  0  0  0
  7  8  1  0  0  0  0
  7  9  1  0  0  0  0
  7 10  1  0  0  0  0
 10 11  1  0  0  0  0
 10 12  1  0  0  0  0
 10 13  1  0  0  0  0
M  END
> <VConfSearch Rank>
641

> <Conf_Id>
0

> <Delta U+W>
0.000

> <U+W>
-58.332

> <U>
8.390

> <W>
-66.722

> <W(PB)>
-68.455

> <W(SA)>
1.733

> <Valence>
6.333

> <Coulomb>
1.215

> <VdW>
0.842

> <VdW6>
-3.344

> <VdW12>
4.186

> <Bond>
0.091

> <Angle>
2.713

> <Pdih>
3.529

> <Idih>
0.000

> <Tether>
0.000

$$$$
VeraChem MOL file


 13 12  0  0  0  0  0  0  0  0999 V2000     
   19.7998   17.2289   22.9024 C   0  0  0  0  0  0  0  0  0  0  0  0
   18.7209   16.6757   22.8286 O   0  5  0  0  0  0  0  0  0  0  0  0
   20.5730   17.0710   23.8257 O   0  0  0  0  0  0  0  0  0  0  0  0
   20.1967   18.1876   21.7849 C   0  0  0  0  0  0  0  0  0  0  0  0
   19.7594   17.8203   20.8485 H   0  0  0  0  0  0  0  0  0  0  0  0
   21.2867   18.1463   21.6707 H   0  0  0  0  0  0  0  0  0  0  0  0
   19.7437   19.6439   22.0490 C   0  0  0  0  0  0  0  0  0  0  0  0
   18.6519   19.6716   22.1715 H   0  0  0  0  0  0  0  0  0  0  0  0
   20.1796   19.9977   22.9938 H   0  0  0  0  0  0  0  0  0  0  0  0
   20.1595   20.5871   20.9023 C   0  0  0  0  0  0  0  0  0  0  0  0
   19.8299   21.6140   21.1075 H   0  0  0  0  0  0  0  0  0  0  0  0
   21.2506   20.5993   20.7799 H   0  0  0  0  0  0  0  0  0  0  0  0
   19.7111   20.2707   19.9514 H   0  0  0  0  0  0  0  0  0  0  0  0
  1  2  1  0  0  0  0
  1  3  2  0  0  0  0
  1  4  1  0  0  0  0
  4  5  1  0  0  0  0
  4  6  1  0  0  0  0
  4  7  1  0  0  0  0
  7  8  1  0  0  0  0
  7  9  1  0  0  0  0
  7 10  1  0  0  0  0
 10 11  1  0  0  0  0
 10 12  1  0  0  0  0
 10 13  1  0  0  0  0
M  END
> <VConfSearch Rank>
642

> <Conf_Id>
1

> <Delta U+W>
-1.339

> <U+W>
-59.672

> <U>
7.389

> <W>
-67.061

> <W(PB)>
-68.767

> <W(SA)>
1.707

> <Valence>
5.822

> <Coulomb>
1.255

> <VdW>
0.312

> <VdW6>
-3.061

> <VdW12>
3.372

> <Bond>
0.059

> <Angle>
2.241

> <Pdih>
3.522

> <Idih>
0.000

> <Tether>
0.000

$$$$
VeraChem MOL file


 13 12  0  0  0  0  0  0  0  0999 V2000     
   21.6196   19.6421   21.2740 C   0  0  0  0  0  0  0  0  0  0  0  0
   21.4903   20.6762   20.6495 O   0  5  0  0  0  0  0  0  0  0  0  0
   22.5639   19.4142   22.0036 O   0  0  0  0  0  0  0  0  0  0  0  0
   20.5566   18.5597   21.1031 C   0  0  0  0  0  0  0  0  0  0  0  0
   20.9664   17.6057   21.4571 H   0  0  0  0  0  0  0  0  0  0  0  0
   20.3749   18.4466   20.0277 H   0  0  0  0  0  0  0  0  0  0  0  0
   19.2181   18.8656   21.8228 C   0  0  0  0  0  0  0  0  0  0  0  0
   18.8373   19.8420   21.4918 H   0  0  0  0  0  0  0  0  0  0  0  0
   18.4703   18.1179   21.5251 H   0  0  0  0  0  0  0  0  0  0  0  0
   19.3578   18.8544   23.3591 C   0  0  0  0  0  0  0  0  0  0  0  0
   20.0667   19.6221   23.6965 H   0  0  0  0  0  0  0  0  0  0  0  0
   18.3900   19.0546   23.8370 H   0  0  0  0  0  0  0  0  0  0  0  0
   19.7163   17.8791   23.7135 H   0  0  0  0  0  0  0  0  0  0  0  0
  1  2  1  0  0  0  0
  1  3  2  0  0  0  0
  1  4  1  0  0  0  0
  4  5  1  0  0  0  0
  4  6  1  0  0  0  0
  4  7  1  0  0  0  0
  7  8  1  0  0  0  0
  7  9  1  0  0  0  0
  7 10  1  0  0  0  0
 10 11  1  0  0  0  0
 10 12  1  0  0  0  0
 10 13  1  0  0  0  0
M  END
> <VConfSearch Rank>
643

> <Conf_Id>
4

> <Delta U+W>
0.281

> <U+W>
-58.051

> <U>
9.781

> <W>
-67.832

> <W(PB)>
-69.535

> <W(SA)>
1.703

> <Valence>
6.123

> <Coulomb>
3.449

> <VdW>
0.209

> <VdW6>
-3.762

> <VdW12>
3.972

> <Bond>
0.078

> <Angle>
2.428

> <Pdih>
3.616

> <Idih>
0.002

> <Tether>
0.000

$$$$
VeraChem MOL file


 13 12  0  0  0  0  0  0  0  0999 V2000     
   19.5459   18.3806   23.5903 C   0  0  0  0  0  0  0  0  0  0  0  0
   18.8235   19.2155   24.0972 O   0  5  0  0  0  0  0  0  0  0  0  0
   19.3522   17.1845   23.6796 O   0  0  0  0  0  0  0  0  0  0  0  0
   20.7824   18.8553   22.8311 C   0  0  0  0  0  0  0  0  0  0  0  0
   21.6325   18.2609   23.1863 H   0  0  0  0  0  0  0  0  0  0  0  0
   20.9864   19.8969   23.1081 H   0  0  0  0  0  0  0  0  0  0  0  0
   20.6700   18.7249   21.2904 C   0  0  0  0  0  0  0  0  0  0  0  0
   21.6473   18.9430   20.8385 H   0  0  0  0  0  0  0  0  0  0  0  0
   20.4246   17.6866   21.0262 H   0  0  0  0  0  0  0  0  0  0  0  0
   19.6144   19.6780   20.6926 C   0  0  0  0  0  0  0  0  0  0  0  0
   19.8530   20.7239   20.9262 H   0  0  0  0  0  0  0  0  0  0  0  0
   19.5742   19.5746   19.6005 H   0  0  0  0  0  0  0  0  0  0  0  0
   18.6145   19.4587   21.0900 H   0  0  0  0  0  0  0  0  0  0  0  0
  1  2  1  0  0  0  0
  1  3  2  0  0  0  0
  1  4  1  0  0  0  0
  4  5  1  0  0  0  0
  4  6  1  0  0  0  0
  4  7  1  0  0  0  0
  7  8  1  0  0  0  0
  7  9  1  0  0  0  0
  7 10  1  0  0  0  0
 10 11  1  0  0  0  0
 10 12  1  0  0  0  0
 10 13  1  0  0  0  0
M  END
> <VConfSearch Rank>
644

> <Conf_Id>
36

> <Delta U+W>
0.272

> <U+W>
-58.060

> <U>
9.781

> <W>
-67.841

> <W(PB)>
-69.537

> <W(SA)>
1.696

> <Valence>
6.123

> <Coulomb>
3.449

> <VdW>
0.209

> <VdW6>
-3.762

> <VdW12>
3.972

> <Bond>
0.078

> <Angle>
2.428

> <Pdih>
3.616

> <Idih>
0.002

> <Tether>
0.000

$$$$
VeraChem MOL file


 13 12  0  0  0  0  0  0  0  0999 V2000     
   19.7871   18.4411   23.8651 C   0  0  0  0  0  0  0  0  0  0  0  0
   19.6602   19.5373   24.3744 O   0  5  0  0  0  0  0  0  0  0  0  0
   19.7611   17.4082   24.5034 O   0  0  0  0  0  0  0  0  0  0  0  0
   19.9907   18.3236   22.3533 C   0  0  0  0  0  0  0  0  0  0  0  0
   19.1867   17.6885   21.9627 H   0  0  0  0  0  0  0  0  0  0  0  0
   20.9319   17.7852   22.1903 H   0  0  0  0  0  0  0  0  0  0  0  0
   20.0170   19.6679   21.5800 C   0  0  0  0  0  0  0  0  0  0  0  0
   19.0742   20.2072   21.7471 H   0  0  0  0  0  0  0  0  0  0  0  0
   20.8215   20.3040   21.9749 H   0  0  0  0  0  0  0  0  0  0  0  0
   20.2263   19.4510   20.0677 C   0  0  0  0  0  0  0  0  0  0  0  0
   19.4171   18.8428   19.6423 H   0  0  0  0  0  0  0  0  0  0  0  0
   20.2422   20.4123   19.5379 H   0  0  0  0  0  0  0  0  0  0  0  0
   21.1785   18.9404   19.8721 H   0  0  0  0  0  0  0  0  0  0  0  0
  1  2  1  0  0  0  0
  1  3  2  0  0  0  0
  1  4  1  0  0  0  0
  4  5  1  0  0  0  0
  4  6  1  0  0  0  0
  4  7  1  0  0  0  0
  7  8  1  0  0  0  0
  7  9  1  0  0  0  0
  7 10  1  0  0  0  0
 10 11  1  0  0  0  0
 10 12  1  0  0  0  0
 10 13  1  0  0  0  0
M  END
> <VConfSearch Rank>
645

> <Conf_Id>
0

> <Delta U+W>
0.000

> <U+W>
-58.332

> <U>
8.390

> <W>
-66.722

> <W(PB)>
-68.455

> <W(SA)>
1.733

> <Valence>
6.333

> <Coulomb>
1.215

> <VdW>
0.842

> <VdW6>
-3.344

> <VdW12>
4.186

> <Bond>
0.091

> <Angle>
2.713

> <Pdih>
3.529

> <Idih>
0.000

> <Tether>
0.000

$$$$
VeraChem MOL file


 13 12  0  0  0  0  0  0  0  0999 V2000     
   19.2649   17.4879   20.5960 C   0  0  0  0  0  0  0  0  0  0  0  0
   19.8633   17.3123   19.5536 O   0  5  0  0  0  0  0  0  0  0  0  0
   18.1062   17.1663   20.7669 O   0  0  0  0  0  0  0  0  0  0  0  0
   20.0025   18.1659   21.7457 C   0  0  0  0  0  0  0  0  0  0  0  0
   21.0604   17.8824   21.6870 H   0  0  0  0  0  0  0  0  0  0  0  0
   19.6114   17.7620   22.6875 H   0  0  0  0  0  0  0  0  0  0  0  0
   19.8622   19.7072   21.7282 C   0  0  0  0  0  0  0  0  0  0  0  0
   20.2478   20.0995   20.7767 H   0  0  0  0  0  0  0  0  0  0  0  0
   18.7985   19.9790   21.7775 H   0  0  0  0  0  0  0  0  0  0  0  0
   20.6182   20.3618   22.9017 C   0  0  0  0  0  0  0  0  0  0  0  0
   20.5072   21.4536   22.8724 H   0  0  0  0  0  0  0  0  0  0  0  0
   20.2299   20.0074   23.8656 H   0  0  0  0  0  0  0  0  0  0  0  0
   21.6903   20.1288   22.8571 H   0  0  0  0  0  0  0  0  0  0  0  0
  1  2  1  0  0  0  0
  1  3  2  0  0  0  0
  1  4  1  0  0  0  0
  4  5  1  0  0  0  0
  4  6  1  0  0  0  0
  4  7  1  0  0  0  0
  7  8  1  0  0  0  0
  7  9  1  0  0  0  0
  7 10  1  0  0  0  0
 10 11  1  0  0  0  0
 10 12  1  0  0  0  0
 10 13  1  0  0  0  0
M  END
> <VConfSearch Rank>
646

> <Conf_Id>
1

> <Delta U+W>
-1.339

> <U+W>
-59.672

> <U>
7.389

> <W>
-67.061

> <W(PB)>
-68.767

> <W(SA)>
1.707

> <Valence>
5.822

> <Coulomb>
1.255

> <VdW>
0.312

> <VdW6>
-3.061

> <VdW12>
3.372

> <Bond>
0.059

> <Angle>
2.241

> <Pdih>
3.522

> <Idih>
0.000

> <Tether>
0.000

$$$$
VeraChem MOL file


 13 12  0  0  0  0  0  0  0  0999 V2000     
   19.2814   17.5907   22.7732 C   0  0  0  0  0  0  0  0  0  0  0  0
   19.4566   17.4633   23.9687 O   0  5  0  0  0  0  0  0  0  0  0  0
   18.2091   17.4120   22.2308 O   0  0  0  0  0  0  0  0  0  0  0  0
   20.4815   17.9597   21.9047 C   0  0  0  0  0  0  0  0  0  0  0  0
   20.2449   17.7240   20.8598 H   0  0  0  0  0  0  0  0  0  0  0  0
   21.3106   17.3043   22.1971 H   0  0  0  0  0  0  0  0  0  0  0  0
   20.9251   19.4398   22.0309 C   0  0  0  0  0  0  0  0  0  0  0  0
   21.1198   19.6766   23.0863 H   0  0  0  0  0  0  0  0  0  0  0  0
   21.8748   19.5777   21.4962 H   0  0  0  0  0  0  0  0  0  0  0  0
   19.8790   20.4202   21.4613 C   0  0  0  0  0  0  0  0  0  0  0  0
   18.9274   20.3408   22.0034 H   0  0  0  0  0  0  0  0  0  0  0  0
   20.2321   21.4560   21.5482 H   0  0  0  0  0  0  0  0  0  0  0  0
   19.6858   20.2151   20.4002 H   0  0  0  0  0  0  0  0  0  0  0  0
  1  2  1  0  0  0  0
  1  3  2  0  0  0  0
  1  4  1  0  0  0  0
  4  5  1  0  0  0  0
  4  6  1  0  0  0  0
  4  7  1  0  0  0  0
  7  8  1  0  0  0  0
  7  9  1  0  0  0  0
  7 10  1  0  0  0  0
 10 11  1  0  0  0  0
 10 12  1  0  0  0  0
 10 13  1  0  0  0  0
M  END
> <VConfSearch Rank>
647

> <Conf_Id>
4

> <Delta U+W>
0.281

> <U+W>
-58.051

> <U>
9.781

> <W>
-67.832

> <W(PB)>
-69.535

> <W(SA)>
1.703

> <Valence>
6.123

> <Coulomb>
3.449

> <VdW>
0.209

> <VdW6>
-3.762

> <VdW12>
3.972

> <Bond>
0.078

> <Angle>
2.428

> <Pdih>
3.616

> <Idih>
0.002

> <Tether>
0.000

$$$$
VeraChem MOL file


 13 12  0  0  0  0  0  0  0  0999 V2000     
   20.9797   17.8651   20.8786 C   0  0  0  0  0  0  0  0  0  0  0  0
   21.0867   16.7684   21.3901 O   0  5  0  0  0  0  0  0  0  0  0  0
   20.7678   18.0337   19.6942 O   0  0  0  0  0  0  0  0  0  0  0  0
   21.1559   19.0980   21.7615 C   0  0  0  0  0  0  0  0  0  0  0  0
   21.8488   19.7734   21.2455 H   0  0  0  0  0  0  0  0  0  0  0  0
   21.6455   18.7947   22.6950 H   0  0  0  0  0  0  0  0  0  0  0  0
   19.8365   19.8509   22.0708 C   0  0  0  0  0  0  0  0  0  0  0  0
   20.0721   20.7967   22.5774 H   0  0  0  0  0  0  0  0  0  0  0  0
   19.3337   20.1136   21.1295 H   0  0  0  0  0  0  0  0  0  0  0  0
   18.8814   19.0275   22.9595 C   0  0  0  0  0  0  0  0  0  0  0  0
   19.3568   18.7729   23.9158 H   0  0  0  0  0  0  0  0  0  0  0  0
   17.9674   19.5960   23.1753 H   0  0  0  0  0  0  0  0  0  0  0  0
   18.5888   18.0924   22.4638 H   0  0  0  0  0  0  0  0  0  0  0  0
  1  2  1  0  0  0  0
  1  3  2  0  0  0  0
  1  4  1  0  0  0  0
  4  5  1  0  0  0  0
  4  6  1  0  0  0  0
  4  7  1  0  0  0  0
  7  8  1  0  0  0  0
  7  9  1  0  0  0  0
  7 10  1  0  0  0  0
 10 11  1  0  0  0  0
 10 12  1  0  0  0  0
 10 13  1  0  0  0  0
M  END
> <VConfSearch Rank>
648

> <Conf_Id>
36

> <Delta U+W>
0.272

> <U+W>
-58.060

> <U>
9.781

> <W>
-67.841

> <W(PB)>
-69.537

> <W(SA)>
1.696

> <Valence>
6.123

> <Coulomb>
3.449

> <VdW>
0.209

> <VdW6>
-3.762

> <VdW12>
3.972

> <Bond>
0.078

> <Angle>
2.428

> <Pdih>
3.616

> <Idih>
0.002

> <Tether>
0.000

$$$$
VeraChem MOL file


 13 12  0  0  0  0  0  0  0  0999 V2000     
   18.1330   19.2999   20.8789 C   0  0  0  0  0  0  0  0  0  0  0  0
   17.7517   18.1491   20.7925 O   0  5  0  0  0  0  0  0  0  0  0  0
   17.4809   20.2442   20.4815 O   0  0  0  0  0  0  0  0  0  0  0  0
   19.4920   19.6056   21.5116 C   0  0  0  0  0  0  0  0  0  0  0  0
   19.3165   20.2900   22.3502 H   0  0  0  0  0  0  0  0  0  0  0  0
   20.0834   20.1542   20.7689 H   0  0  0  0  0  0  0  0  0  0  0  0
   20.2888   18.3693   22.0042 C   0  0  0  0  0  0  0  0  0  0  0  0
   19.6932   17.8193   22.7462 H   0  0  0  0  0  0  0  0  0  0  0  0
   20.4609   17.6833   21.1630 H   0  0  0  0  0  0  0  0  0  0  0  0
   21.6411   18.7737   22.6251 C   0  0  0  0  0  0  0  0  0  0  0  0
   21.4946   19.4357   23.4887 H   0  0  0  0  0  0  0  0  0  0  0  0
   22.1899   17.8866   22.9674 H   0  0  0  0  0  0  0  0  0  0  0  0
   22.2684   19.2987   21.8928 H   0  0  0  0  0  0  0  0  0  0  0  0
  1  2  1  0  0  0  0
  1  3  2  0  0  0  0
  1  4  1  0  0  0  0
  4  5  1  0  0  0  0
  4  6  1  0  0  0  0
  4  7  1  0  0  0  0
  7  8  1  0  0  0  0
  7  9  1  0  0  0  0
  7 10  1  0  0  0  0
 10 11  1  0  0  0  0
 10 12  1  0  0  0  0
 10 13  1  0  0  0  0
M  END
> <VConfSearch Rank>
649

> <Conf_Id>
0

> <Delta U+W>
0.000

> <U+W>
-58.332

> <U>
8.390

> <W>
-66.722

> <W(PB)>
-68.455

> <W(SA)>
1.733

> <Valence>
6.333

> <Coulomb>
1.215

> <VdW>
0.842

> <VdW6>
-3.344

> <VdW12>
4.186

> <Bond>
0.091

> <Angle>
2.713

> <Pdih>
3.529

> <Idih>
0.000

> <Tether>
0.000

$$$$
VeraChem MOL file


 13 12  0  0  0  0  0  0  0  0999 V2000     
   20.1111   17.7166   23.4737 C   0  0  0  0  0  0  0  0  0  0  0  0
   20.0325   18.2235   24.5747 O   0  5  0  0  0  0  0  0  0  0  0  0
   20.6573   16.6525   23.2624 O   0  0  0  0  0  0  0  0  0  0  0  0
   19.5082   18.4655   22.2900 C   0  0  0  0  0  0  0  0  0  0  0  0
   18.6325   19.0208   22.6476 H   0  0  0  0  0  0  0  0  0  0  0  0
   19.1477   17.7252   21.5654 H   0  0  0  0  0  0  0  0  0  0  0  0
   20.5104   19.4306   21.6118 C   0  0  0  0  0  0  0  0  0  0  0  0
   20.8720   20.1610   22.3491 H   0  0  0  0  0  0  0  0  0  0  0  0
   21.3872   18.8652   21.2665 H   0  0  0  0  0  0  0  0  0  0  0  0
   19.8709   20.1716   20.4204 C   0  0  0  0  0  0  0  0  0  0  0  0
   20.5961   20.8504   19.9529 H   0  0  0  0  0  0  0  0  0  0  0  0
   19.5280   19.4627   19.6552 H   0  0  0  0  0  0  0  0  0  0  0  0
   19.0088   20.7685   20.7461 H   0  0  0  0  0  0  0  0  0  0  0  0
  1  2  1  0  0  0  0
  1  3  2  0  0  0  0
  1  4  1  0  0  0  0
  4  5  1  0  0  0  0
  4  6  1  0  0  0  0
  4  7  1  0  0  0  0
  7  8  1  0  0  0  0
  7  9  1  0  0  0  0
  7 10  1  0  0  0  0
 10 11  1  0  0  0  0
 10 12  1  0  0  0  0
 10 13  1  0  0  0  0
M  END
> <VConfSearch Rank>
650

> <Conf_Id>
1

> <Delta U+W>
-1.339

> <U+W>
-59.672

> <U>
7.389

> <W>
-67.061

> <W(PB)>
-68.767

> <W(SA)>
1.707

> <Valence>
5.822

> <Coulomb>
1.255

> <VdW>
0.312

> <VdW6>
-3.061

> <VdW12>
3.372

> <Bond>
0.059

> <Angle>
2.241

> <Pdih>
3.522

> <Idih>
0.000

> <Tether>
0.000

$$$$
VeraChem MOL file


 13 12  0  0  0  0  0  0  0  0999 V2000     
   20.3888   17.3656   21.2389 C   0  0  0  0  0  0  0  0  0  0  0  0
   21.5371   16.9697   21.2143 O   0  5  0  0  0  0  0  0  0  0  0  0
   19.4370   16.6457   21.4667 O   0  0  0  0  0  0  0  0  0  0  0  0
   20.1278   18.8381   20.9317 C   0  0  0  0  0  0  0  0  0  0  0  0
   19.0674   18.9620   20.6797 H   0  0  0  0  0  0  0  0  0  0  0  0
   20.6990   19.0904   20.0303 H   0  0  0  0  0  0  0  0  0  0  0  0
   20.5206   19.8049   22.0782 C   0  0  0  0  0  0  0  0  0  0  0  0
   21.5730   19.6437   22.3508 H   0  0  0  0  0  0  0  0  0  0  0  0
   20.4426   20.8400   21.7187 H   0  0  0  0  0  0  0  0  0  0  0  0
   19.6277   19.6358   23.3249 C   0  0  0  0  0  0  0  0  0  0  0  0
   19.7152   18.6223   23.7385 H   0  0  0  0  0  0  0  0  0  0  0  0
   19.9191   20.3471   24.1087 H   0  0  0  0  0  0  0  0  0  0  0  0
   18.5727   19.8146   23.0792 H   0  0  0  0  0  0  0  0  0  0  0  0
  1  2  1  0  0  0  0
  1  3  2  0  0  0  0
  1  4  1  0  0  0  0
  4  5  1  0  0  0  0
  4  6  1  0  0  0  0
  4  7  1  0  0  0  0
  7  8  1  0  0  0  0
  7  9  1  0  0  0  0
  7 10  1  0  0  0  0
 10 11  1  0  0  0  0
 10 12  1  0  0  0  0
 10 13  1  0  0  0  0
M  END
> <VConfSearch Rank>
651

> <Conf_Id>
4

> <Delta U+W>
0.281

> <U+W>
-58.051

> <U>
9.781

> <W>
-67.832

> <W(PB)>
-69.535

> <W(SA)>
1.703

> <Valence>
6.123

> <Coulomb>
3.449

> <VdW>
0.209

> <VdW6>
-3.762

> <VdW12>
3.972

> <Bond>
0.078

> <Angle>
2.428

> <Pdih>
3.616

> <Idih>
0.002

> <Tether>
0.000

$$$$
VeraChem MOL file


 13 12  0  0  0  0  0  0  0  0999 V2000     
   21.8385   19.3819   22.2718 C   0  0  0  0  0  0  0  0  0  0  0  0
   22.3523   18.5385   22.9794 O   0  5  0  0  0  0  0  0  0  0  0  0
   22.4125   19.9187   21.3453 O   0  0  0  0  0  0  0  0  0  0  0  0
   20.4089   19.8178   22.5833 C   0  0  0  0  0  0  0  0  0  0  0  0
   20.3946   20.9142   22.5857 H   0  0  0  0  0  0  0  0  0  0  0  0
   20.1571   19.4955   23.6011 H   0  0  0  0  0  0  0  0  0  0  0  0
   19.3518   19.2905   21.5794 C   0  0  0  0  0  0  0  0  0  0  0  0
   18.3860   19.7705   21.7886 H   0  0  0  0  0  0  0  0  0  0  0  0
   19.6355   19.5836   20.5589 H   0  0  0  0  0  0  0  0  0  0  0  0
   19.1799   17.7592   21.6530 C   0  0  0  0  0  0  0  0  0  0  0  0
   18.8744   17.4466   22.6601 H   0  0  0  0  0  0  0  0  0  0  0  0
   18.4118   17.4217   20.9450 H   0  0  0  0  0  0  0  0  0  0  0  0
   20.1177   17.2444   21.4053 H   0  0  0  0  0  0  0  0  0  0  0  0
  1  2  1  0  0  0  0
  1  3  2  0  0  0  0
  1  4  1  0  0  0  0
  4  5  1  0  0  0  0
  4  6  1  0  0  0  0
  4  7  1  0  0  0  0
  7  8  1  0  0  0  0
  7  9  1  0  0  0  0
  7 10  1  0  0  0  0
 10 11  1  0  0  0  0
 10 12  1  0  0  0  0
 10 13  1  0  0  0  0
M  END
> <VConfSearch Rank>
652

> <Conf_Id>
36

> <Delta U+W>
0.272

> <U+W>
-58.060

> <U>
9.781

> <W>
-67.841

> <W(PB)>
-69.537

> <W(SA)>
1.696

> <Valence>
6.123

> <Coulomb>
3.449

> <VdW>
0.209

> <VdW6>
-3.762

> <VdW12>
3.972

> <Bond>
0.078

> <Angle>
2.428

> <Pdih>
3.616

> <Idih>
0.002

> <Tether>
0.000

$$$$
VeraChem MOL file


 13 12  0  0  0  0  0  0  0  0999 V2000     
   18.2217   17.9440   21.3878 C   0  0  0  0  0  0  0  0  0  0  0  0
   18.2306   17.9936   20.1734 O   0  5  0  0  0  0  0  0  0  0  0  0
   17.3416   17.3970   22.0210 O   0  0  0  0  0  0  0  0  0  0  0  0
   19.3568   18.5910   22.1839 C   0  0  0  0  0  0  0  0  0  0  0  0
   19.8060   17.8096   22.8083 H   0  0  0  0  0  0  0  0  0  0  0  0
   18.9046   19.3233   22.8632 H   0  0  0  0  0  0  0  0  0  0  0  0
   20.4576   19.2773   21.3335 C   0  0  0  0  0  0  0  0  0  0  0  0
   20.9074   18.5425   20.6513 H   0  0  0  0  0  0  0  0  0  0  0  0
   20.0049   20.0580   20.7062 H   0  0  0  0  0  0  0  0  0  0  0  0
   21.5561   19.8995   22.2189 C   0  0  0  0  0  0  0  0  0  0  0  0
   22.0459   19.1331   22.8340 H   0  0  0  0  0  0  0  0  0  0  0  0
   22.3252   20.3799   21.6001 H   0  0  0  0  0  0  0  0  0  0  0  0
   21.1361   20.6608   22.8894 H   0  0  0  0  0  0  0  0  0  0  0  0
  1  2  1  0  0  0  0
  1  3  2  0  0  0  0
  1  4  1  0  0  0  0
  4  5  1  0  0  0  0
  4  6  1  0  0  0  0
  4  7  1  0  0  0  0
  7  8  1  0  0  0  0
  7  9  1  0  0  0  0
  7 10  1  0  0  0  0
 10 11  1  0  0  0  0
 10 12  1  0  0  0  0
 10 13  1  0  0  0  0
M  END
> <VConfSearch Rank>
653

> <Conf_Id>
0

> <Delta U+W>
0.000

> <U+W>
-58.332

> <U>
8.390

> <W>
-66.722

> <W(PB)>
-68.455

> <W(SA)>
1.733

> <Valence>
6.333

> <Coulomb>
1.215

> <VdW>
0.842

> <VdW6>
-3.344

> <VdW12>
4.186

> <Bond>
0.091

> <Angle>
2.713

> <Pdih>
3.529

> <Idih>
0.000

> <Tether>
0.000

$$$$
VeraChem MOL file


 13 12  0  0  0  0  0  0  0  0999 V2000     
   18.4197   17.6268   21.8210 C   0  0  0  0  0  0  0  0  0  0  0  0
   17.7758   17.5362   22.8470 O   0  5  0  0  0  0  0  0  0  0  0  0
   18.5137   16.7306   21.0065 O   0  0  0  0  0  0  0  0  0  0  0  0
   19.1653   18.9291   21.5499 C   0  0  0  0  0  0  0  0  0  0  0  0
   18.5835   19.7520   21.9827 H   0  0  0  0  0  0  0  0  0  0  0  0
   19.1920   19.0877   20.4649 H   0  0  0  0  0  0  0  0  0  0  0  0
   20.6026   18.9332   22.1244 C   0  0  0  0  0  0  0  0  0  0  0  0
   20.5640   18.7637   23.2095 H   0  0  0  0  0  0  0  0  0  0  0  0
   21.1727   18.0993   21.6914 H   0  0  0  0  0  0  0  0  0  0  0  0
   21.3288   20.2620   21.8340 C   0  0  0  0  0  0  0  0  0  0  0  0
   22.3452   20.2458   22.2486 H   0  0  0  0  0  0  0  0  0  0  0  0
   21.4063   20.4392   20.7532 H   0  0  0  0  0  0  0  0  0  0  0  0
   20.7930   21.1086   22.2830 H   0  0  0  0  0  0  0  0  0  0  0  0
  1  2  1  0  0  0  0
  1  3  2  0  0  0  0
  1  4  1  0  0  0  0
  4  5  1  0  0  0  0
  4  6  1  0  0  0  0
  4  7  1  0  0  0  0
  7  8  1  0  0  0  0
  7  9  1  0  0  0  0
  7 10  1  0  0  0  0
 10 11  1  0  0  0  0
 10 12  1  0  0  0  0
 10 13  1  0  0  0  0
M  END
> <VConfSearch Rank>
654

> <Conf_Id>
1

> <Delta U+W>
-1.339

> <U+W>
-59.672

> <U>
7.389

> <W>
-67.061

> <W(PB)>
-68.767

> <W(SA)>
1.707

> <Valence>
5.822

> <Coulomb>
1.255

> <VdW>
0.312

> <VdW6>
-3.061

> <VdW12>
3.372

> <Bond>
0.059

> <Angle>
2.241

> <Pdih>
3.522

> <Idih>
0.000

> <Tether>
0.000

$$$$
VeraChem MOL file


 13 12  0  0  0  0  0  0  0  0999 V2000     
   19.9661   18.3157   23.6584 C   0  0  0  0  0  0  0  0  0  0  0  0
   18.8384   18.0422   24.0182 O   0  5  0  0  0  0  0  0  0  0  0  0
   20.9371   17.6355   23.9237 O   0  0  0  0  0  0  0  0  0  0  0  0
   20.1762   19.6010   22.8618 C   0  0  0  0  0  0  0  0  0  0  0  0
   21.2405   19.8648   22.8946 H   0  0  0  0  0  0  0  0  0  0  0  0
   19.6357   20.4005   23.3824 H   0  0  0  0  0  0  0  0  0  0  0  0
   19.6906   19.5230   21.3916 C   0  0  0  0  0  0  0  0  0  0  0  0
   18.6349   19.2179   21.3687 H   0  0  0  0  0  0  0  0  0  0  0  0
   19.7394   20.5245   20.9428 H   0  0  0  0  0  0  0  0  0  0  0  0
   20.5330   18.5486   20.5425 C   0  0  0  0  0  0  0  0  0  0  0  0
   20.4713   17.5260   20.9378 H   0  0  0  0  0  0  0  0  0  0  0  0
   20.1759   18.5320   19.5046 H   0  0  0  0  0  0  0  0  0  0  0  0
   21.5892   18.8482   20.5337 H   0  0  0  0  0  0  0  0  0  0  0  0
  1  2  1  0  0  0  0
  1  3  2  0  0  0  0
  1  4  1  0  0  0  0
  4  5  1  0  0  0  0
  4  6  1  0  0  0  0
  4  7  1  0  0  0  0
  7  8  1  0  0  0  0
  7  9  1  0  0  0  0
  7 10  1  0  0  0  0
 10 11  1  0  0  0  0
 10 12  1  0  0  0  0
 10 13  1  0  0  0  0
M  END
> <VConfSearch Rank>
655

> <Conf_Id>
4

> <Delta U+W>
0.281

> <U+W>
-58.051

> <U>
9.781

> <W>
-67.832

> <W(PB)>
-69.535

> <W(SA)>
1.703

> <Valence>
6.123

> <Coulomb>
3.449

> <VdW>
0.209

> <VdW6>
-3.762

> <VdW12>
3.972

> <Bond>
0.078

> <Angle>
2.428

> <Pdih>
3.616

> <Idih>
0.002

> <Tether>
0.000

$$$$
VeraChem MOL file


 13 12  0  0  0  0  0  0  0  0999 V2000     
   18.6457   19.0222   23.0180 C   0  0  0  0  0  0  0  0  0  0  0  0
   17.9933   20.0088   22.7403 O   0  5  0  0  0  0  0  0  0  0  0  0
   18.1502   17.9485   23.2968 O   0  0  0  0  0  0  0  0  0  0  0  0
   20.1670   19.1447   23.0540 C   0  0  0  0  0  0  0  0  0  0  0  0
   20.5094   18.6920   23.9922 H   0  0  0  0  0  0  0  0  0  0  0  0
   20.4330   20.2079   23.0998 H   0  0  0  0  0  0  0  0  0  0  0  0
   20.8868   18.4652   21.8609 C   0  0  0  0  0  0  0  0  0  0  0  0
   21.9699   18.4698   22.0440 H   0  0  0  0  0  0  0  0  0  0  0  0
   20.5815   17.4112   21.7992 H   0  0  0  0  0  0  0  0  0  0  0  0
   20.5996   19.1702   20.5190 C   0  0  0  0  0  0  0  0  0  0  0  0
   20.9180   20.2204   20.5515 H   0  0  0  0  0  0  0  0  0  0  0  0
   21.1388   18.6770   19.6998 H   0  0  0  0  0  0  0  0  0  0  0  0
   19.5278   19.1454   20.2816 H   0  0  0  0  0  0  0  0  0  0  0  0
  1  2  1  0  0  0  0
  1  3  2  0  0  0  0
  1  4  1  0  0  0  0
  4  5  1  0  0  0  0
  4  6  1  0  0  0  0
  4  7  1  0  0  0  0
  7  8  1  0  0  0  0
  7  9  1  0  0  0  0
  7 10  1  0  0  0  0
 10 11  1  0  0  0  0
 10 12  1  0  0  0  0
 10 13  1  0  0  0  0
M  END
> <VConfSearch Rank>
656

> <Conf_Id>
36

> <Delta U+W>
0.272

> <U+W>
-58.060

> <U>
9.781

> <W>
-67.841

> <W(PB)>
-69.537

> <W(SA)>
1.696

> <Valence>
6.123

> <Coulomb>
3.449

> <VdW>
0.209

> <VdW6>
-3.762

> <VdW12>
3.972

> <Bond>
0.078

> <Angle>
2.428

> <Pdih>
3.616

> <Idih>
0.002

> <Tether>
0.000

$$$$
VeraChem MOL file


 13 12  0  0  0  0  0  0  0  0999 V2000     
   20.5559   20.6877   23.0113 C   0  0  0  0  0  0  0  0  0  0  0  0
   20.5014   20.1935   24.1204 O   0  5  0  0  0  0  0  0  0  0  0  0
   20.8524   21.8496   22.8189 O   0  0  0  0  0  0  0  0  0  0  0  0
   20.2421   19.8334   21.7816 C   0  0  0  0  0  0  0  0  0  0  0  0
   21.1198   19.8687   21.1253 H   0  0  0  0  0  0  0  0  0  0  0  0
   19.4206   20.3220   21.2441 H   0  0  0  0  0  0  0  0  0  0  0  0
   19.8688   18.3570   22.0759 C   0  0  0  0  0  0  0  0  0  0  0  0
   20.6921   17.8700   22.6170 H   0  0  0  0  0  0  0  0  0  0  0  0
   18.9908   18.3239   22.7360 H   0  0  0  0  0  0  0  0  0  0  0  0
   19.5698   17.5760   20.7803 C   0  0  0  0  0  0  0  0  0  0  0  0
   20.4439   17.5679   20.1158 H   0  0  0  0  0  0  0  0  0  0  0  0
   19.3079   16.5346   21.0085 H   0  0  0  0  0  0  0  0  0  0  0  0
   18.7290   18.0254   20.2358 H   0  0  0  0  0  0  0  0  0  0  0  0
  1  2  1  0  0  0  0
  1  3  2  0  0  0  0
  1  4  1  0  0  0  0
  4  5  1  0  0  0  0
  4  6  1  0  0  0  0
  4  7  1  0  0  0  0
  7  8  1  0  0  0  0
  7  9  1  0  0  0  0
  7 10  1  0  0  0  0
 10 11  1  0  0  0  0
 10 12  1  0  0  0  0
 10 13  1  0  0  0  0
M  END
> <VConfSearch Rank>
657

> <Conf_Id>
0

> <Delta U+W>
0.000

> <U+W>
-58.332

> <U>
8.390

> <W>
-66.722

> <W(PB)>
-68.455

> <W(SA)>
1.733

> <Valence>
6.333

> <Coulomb>
1.215

> <VdW>
0.842

> <VdW6>
-3.344

> <VdW12>
4.186

> <Bond>
0.091

> <Angle>
2.713

> <Pdih>
3.529

> <Idih>
0.000

> <Tether>
0.000

$$$$
VeraChem MOL file


 13 12  0  0  0  0  0  0  0  0999 V2000     
   20.7046   19.6874   19.9534 C   0  0  0  0  0  0  0  0  0  0  0  0
   20.2988   20.7664   19.5709 O   0  5  0  0  0  0  0  0  0  0  0  0
   21.1052   18.8178   19.2059 O   0  0  0  0  0  0  0  0  0  0  0  0
   20.6928   19.4019   21.4514 C   0  0  0  0  0  0  0  0  0  0  0  0
   20.8715   20.3461   21.9802 H   0  0  0  0  0  0  0  0  0  0  0  0
   21.5365   18.7391   21.6792 H   0  0  0  0  0  0  0  0  0  0  0  0
   19.3682   18.7632   21.9343 C   0  0  0  0  0  0  0  0  0  0  0  0
   18.5296   19.4311   21.6920 H   0  0  0  0  0  0  0  0  0  0  0  0
   19.1949   17.8237   21.3911 H   0  0  0  0  0  0  0  0  0  0  0  0
   19.3881   18.4875   23.4512 C   0  0  0  0  0  0  0  0  0  0  0  0
   18.4414   18.0351   23.7744 H   0  0  0  0  0  0  0  0  0  0  0  0
   20.2007   17.7976   23.7143 H   0  0  0  0  0  0  0  0  0  0  0  0
   19.5303   19.4173   24.0176 H   0  0  0  0  0  0  0  0  0  0  0  0
  1  2  1  0  0  0  0
  1  3  2  0  0  0  0
  1  4  1  0  0  0  0
  4  5  1  0  0  0  0
  4  6  1  0  0  0  0
  4  7  1  0  0  0  0
  7  8  1  0  0  0  0
  7  9  1  0  0  0  0
  7 10  1  0  0  0  0
 10 11  1  0  0  0  0
 10 12  1  0  0  0  0
 10 13  1  0  0  0  0
M  END
> <VConfSearch Rank>
658

> <Conf_Id>
1

> <Delta U+W>
-1.339

> <U+W>
-59.672

> <U>
7.389

> <W>
-67.061

> <W(PB)>
-68.767

> <W(SA)>
1.707

> <Valence>
5.822

> <Coulomb>
1.255

> <VdW>
0.312

> <VdW6>
-3.061

> <VdW12>
3.372

> <Bond>
0.059

> <Angle>
2.241

> <Pdih>
3.522

> <Idih>
0.000

> <Tether>
0.000

$$$$
VeraChem MOL file


 13 12  0  0  0  0  0  0  0  0999 V2000     
   19.2690   20.3050   22.8272 C   0  0  0  0  0  0  0  0  0  0  0  0
   19.1199   21.3241   22.1828 O   0  5  0  0  0  0  0  0  0  0  0  0
   18.4182   19.8483   23.5643 O   0  0  0  0  0  0  0  0  0  0  0  0
   20.6102   19.5819   22.7312 C   0  0  0  0  0  0  0  0  0  0  0  0
   20.7020   18.8972   23.5833 H   0  0  0  0  0  0  0  0  0  0  0  0
   21.3975   20.3366   22.8452 H   0  0  0  0  0  0  0  0  0  0  0  0
   20.8225   18.8121   21.4025 C   0  0  0  0  0  0  0  0  0  0  0  0
   20.6875   19.4981   20.5545 H   0  0  0  0  0  0  0  0  0  0  0  0
   21.8598   18.4533   21.3562 H   0  0  0  0  0  0  0  0  0  0  0  0
   19.8665   17.6100   21.2574 C   0  0  0  0  0  0  0  0  0  0  0  0
   18.8183   17.9373   21.2550 H   0  0  0  0  0  0  0  0  0  0  0  0
   20.0561   17.0762   20.3171 H   0  0  0  0  0  0  0  0  0  0  0  0
   20.0007   16.8999   22.0840 H   0  0  0  0  0  0  0  0  0  0  0  0
  1  2  1  0  0  0  0
  1  3  2  0  0  0  0
  1  4  1  0  0  0  0
  4  5  1  0  0  0  0
  4  6  1  0  0  0  0
  4  7  1  0  0  0  0
  7  8  1  0  0  0  0
  7  9  1  0  0  0  0
  7 10  1  0  0  0  0
 10 11  1  0  0  0  0
 10 12  1  0  0  0  0
 10 13  1  0  0  0  0
M  END
> <VConfSearch Rank>
659

> <Conf_Id>
4

> <Delta U+W>
0.281

> <U+W>
-58.051

> <U>
9.781

> <W>
-67.832

> <W(PB)>
-69.535

> <W(SA)>
1.703

> <Valence>
6.123

> <Coulomb>
3.449

> <VdW>
0.209

> <VdW6>
-3.762

> <VdW12>
3.972

> <Bond>
0.078

> <Angle>
2.428

> <Pdih>
3.616

> <Idih>
0.002

> <Tether>
0.000

$$$$
VeraChem MOL file


 13 12  0  0  0  0  0  0  0  0999 V2000     
   21.6830   18.8624   21.1322 C   0  0  0  0  0  0  0  0  0  0  0  0
   22.1738   19.9700   21.0417 O   0  5  0  0  0  0  0  0  0  0  0  0
   22.3339   17.8556   21.3291 O   0  0  0  0  0  0  0  0  0  0  0  0
   20.1734   18.7208   20.9540 C   0  0  0  0  0  0  0  0  0  0  0  0
   20.0031   17.8986   20.2487 H   0  0  0  0  0  0  0  0  0  0  0  0
   19.7888   19.6311   20.4779 H   0  0  0  0  0  0  0  0  0  0  0  0
   19.4027   18.4396   22.2694 C   0  0  0  0  0  0  0  0  0  0  0  0
   18.3567   18.2038   22.0302 H   0  0  0  0  0  0  0  0  0  0  0  0
   19.8230   17.5499   22.7588 H   0  0  0  0  0  0  0  0  0  0  0  0
   19.4397   19.6361   23.2425 C   0  0  0  0  0  0  0  0  0  0  0  0
   19.0034   20.5314   22.7805 H   0  0  0  0  0  0  0  0  0  0  0  0
   18.8693   19.4117   24.1533 H   0  0  0  0  0  0  0  0  0  0  0  0
   20.4704   19.8722   23.5386 H   0  0  0  0  0  0  0  0  0  0  0  0
  1  2  1  0  0  0  0
  1  3  2  0  0  0  0
  1  4  1  0  0  0  0
  4  5  1  0  0  0  0
  4  6  1  0  0  0  0
  4  7  1  0  0  0  0
  7  8  1  0  0  0  0
  7  9  1  0  0  0  0
  7 10  1  0  0  0  0
 10 11  1  0  0  0  0
 10 12  1  0  0  0  0
 10 13  1  0  0  0  0
M  END
> <VConfSearch Rank>
660

> <Conf_Id>
36

> <Delta U+W>
0.272

> <U+W>
-58.060

> <U>
9.781

> <W>
-67.841

> <W(PB)>
-69.537

> <W(SA)>
1.696

> <Valence>
6.123

> <Coulomb>
3.449

> <VdW>
0.209

> <VdW6>
-3.762

> <VdW12>
3.972

> <Bond>
0.078

> <Angle>
2.428

> <Pdih>
3.616

> <Idih>
0.002

> <Tether>
0.000

$$$$
VeraChem MOL file


 13 12  0  0  0  0  0  0  0  0999 V2000     
   21.0479   20.7766   22.4063 C   0  0  0  0  0  0  0  0  0  0  0  0
   21.1874   20.5620   23.5945 O   0  5  0  0  0  0  0  0  0  0  0  0
   21.4483   21.7875   21.8654 O   0  0  0  0  0  0  0  0  0  0  0  0
   20.3395   19.7459   21.5252 C   0  0  0  0  0  0  0  0  0  0  0  0
   21.0350   19.4652   20.7253 H   0  0  0  0  0  0  0  0  0  0  0  0
   19.4904   20.2503   21.0488 H   0  0  0  0  0  0  0  0  0  0  0  0
   19.8456   18.4717   22.2590 C   0  0  0  0  0  0  0  0  0  0  0  0
   20.6975   17.9694   22.7381 H   0  0  0  0  0  0  0  0  0  0  0  0
   19.1510   18.7554   23.0620 H   0  0  0  0  0  0  0  0  0  0  0  0
   19.1462   17.4936   21.2936 C   0  0  0  0  0  0  0  0  0  0  0  0
   19.8302   17.1703   20.4980 H   0  0  0  0  0  0  0  0  0  0  0  0
   18.8040   16.5992   21.8304 H   0  0  0  0  0  0  0  0  0  0  0  0
   18.2714   17.9627   20.8245 H   0  0  0  0  0  0  0  0  0  0  0  0
  1  2  1  0  0  0  0
  1  3  2  0  0  0  0
  1  4  1  0  0  0  0
  4  5  1  0  0  0  0
  4  6  1  0  0  0  0
  4  7  1  0  0  0  0
  7  8  1  0  0  0  0
  7  9  1  0  0  0  0
  7 10  1  0  0  0  0
 10 11  1  0  0  0  0
 10 12  1  0  0  0  0
 10 13  1  0  0  0  0
M  END
> <VConfSearch Rank>
661

> <Conf_Id>
0

> <Delta U+W>
0.000

> <U+W>
-58.332

> <U>
8.390

> <W>
-66.722

> <W(PB)>
-68.455

> <W(SA)>
1.733

> <Valence>
6.333

> <Coulomb>
1.215

> <VdW>
0.842

> <VdW6>
-3.344

> <VdW12>
4.186

> <Bond>
0.091

> <Angle>
2.713

> <Pdih>
3.529

> <Idih>
0.000

> <Tether>
0.000

$$$$
VeraChem MOL file


 13 12  0  0  0  0  0  0  0  0999 V2000     
   18.4562   20.3195   22.5183 C   0  0  0  0  0  0  0  0  0  0  0  0
   18.5975   20.7693   23.6377 O   0  5  0  0  0  0  0  0  0  0  0  0
   17.3765   20.1981   21.9753 O   0  0  0  0  0  0  0  0  0  0  0  0
   19.6995   19.8653   21.7612 C   0  0  0  0  0  0  0  0  0  0  0  0
   20.5362   20.5075   22.0622 H   0  0  0  0  0  0  0  0  0  0  0  0
   19.5293   20.0365   20.6912 H   0  0  0  0  0  0  0  0  0  0  0  0
   20.0513   18.3792   22.0134 C   0  0  0  0  0  0  0  0  0  0  0  0
   20.2098   18.2176   23.0889 H   0  0  0  0  0  0  0  0  0  0  0  0
   19.2028   17.7465   21.7176 H   0  0  0  0  0  0  0  0  0  0  0  0
   21.3115   17.9516   21.2348 C   0  0  0  0  0  0  0  0  0  0  0  0
   21.5447   16.8960   21.4262 H   0  0  0  0  0  0  0  0  0  0  0  0
   21.1663   18.0761   20.1537 H   0  0  0  0  0  0  0  0  0  0  0  0
   22.1811   18.5508   21.5355 H   0  0  0  0  0  0  0  0  0  0  0  0
  1  2  1  0  0  0  0
  1  3  2  0  0  0  0
  1  4  1  0  0  0  0
  4  5  1  0  0  0  0
  4  6  1  0  0  0  0
  4  7  1  0  0  0  0
  7  8  1  0  0  0  0
  7  9  1  0  0  0  0
  7 10  1  0  0  0  0
 10 11  1  0  0  0  0
 10 12  1  0  0  0  0
 10 13  1  0  0  0  0
M  END
> <VConfSearch Rank>
662

> <Conf_Id>
1

> <Delta U+W>
-1.339

> <U+W>
-59.672

> <U>
7.389

> <W>
-67.061

> <W(PB)>
-68.767

> <W(SA)>
1.707

> <Valence>
5.822

> <Coulomb>
1.255

> <VdW>
0.312

> <VdW6>
-3.061

> <VdW12>
3.372

> <Bond>
0.059

> <Angle>
2.241

> <Pdih>
3.522

> <Idih>
0.000

> <Tether>
0.000

$$$$
VeraChem MOL file


 13 12  0  0  0  0  0  0  0  0999 V2000     
   19.3815   20.5308   22.4600 C   0  0  0  0  0  0  0  0  0  0  0  0
   20.0407   21.5246   22.2279 O   0  5  0  0  0  0  0  0  0  0  0  0
   18.1786   20.4727   22.2999 O   0  0  0  0  0  0  0  0  0  0  0  0
   20.0997   19.3036   23.0158 C   0  0  0  0  0  0  0  0  0  0  0  0
   19.3553   18.6334   23.4632 H   0  0  0  0  0  0  0  0  0  0  0  0
   20.7482   19.6457   23.8312 H   0  0  0  0  0  0  0  0  0  0  0  0
   20.9482   18.5366   21.9693 C   0  0  0  0  0  0  0  0  0  0  0  0
   21.6623   19.2264   21.4980 H   0  0  0  0  0  0  0  0  0  0  0  0
   21.5429   17.7681   22.4817 H   0  0  0  0  0  0  0  0  0  0  0  0
   20.0812   17.8633   20.8854 C   0  0  0  0  0  0  0  0  0  0  0  0
   19.5046   18.6088   20.3218 H   0  0  0  0  0  0  0  0  0  0  0  0
   20.7103   17.3136   20.1732 H   0  0  0  0  0  0  0  0  0  0  0  0
   19.3746   17.1525   21.3335 H   0  0  0  0  0  0  0  0  0  0  0  0
  1  2  1  0  0  0  0
  1  3  2  0  0  0  0
  1  4  1  0  0  0  0
  4  5  1  0  0  0  0
  4  6  1  0  0  0  0
  4  7  1  0  0  0  0
  7  8  1  0  0  0  0
  7  9  1  0  0  0  0
  7 10  1  0  0  0  0
 10 11  1  0  0  0  0
 10 12  1  0  0  0  0
 10 13  1  0  0  0  0
M  END
> <VConfSearch Rank>
663

> <Conf_Id>
4

> <Delta U+W>
0.281

> <U+W>
-58.051

> <U>
9.781

> <W>
-67.832

> <W(PB)>
-69.535

> <W(SA)>
1.703

> <Valence>
6.123

> <Coulomb>
3.449

> <VdW>
0.209

> <VdW6>
-3.762

> <VdW12>
3.972

> <Bond>
0.078

> <Angle>
2.428

> <Pdih>
3.616

> <Idih>
0.002

> <Tether>
0.000

$$$$
VeraChem MOL file


 13 12  0  0  0  0  0  0  0  0999 V2000     
   20.7957   17.6612   20.9757 C   0  0  0  0  0  0  0  0  0  0  0  0
   19.9628   17.3012   20.1678 O   0  5  0  0  0  0  0  0  0  0  0  0
   21.9815   17.7427   20.7238 O   0  0  0  0  0  0  0  0  0  0  0  0
   20.3358   17.9948   22.3926 C   0  0  0  0  0  0  0  0  0  0  0  0
   21.0064   17.4728   23.0856 H   0  0  0  0  0  0  0  0  0  0  0  0
   19.3338   17.5750   22.5449 H   0  0  0  0  0  0  0  0  0  0  0  0
   20.3349   19.5103   22.7193 C   0  0  0  0  0  0  0  0  0  0  0  0
   20.1396   19.6472   23.7916 H   0  0  0  0  0  0  0  0  0  0  0  0
   21.3321   19.9291   22.5239 H   0  0  0  0  0  0  0  0  0  0  0  0
   19.2757   20.2879   21.9109 C   0  0  0  0  0  0  0  0  0  0  0  0
   18.2680   19.8994   22.1087 H   0  0  0  0  0  0  0  0  0  0  0  0
   19.2883   21.3521   22.1799 H   0  0  0  0  0  0  0  0  0  0  0  0
   19.4664   20.2094   20.8323 H   0  0  0  0  0  0  0  0  0  0  0  0
  1  2  1  0  0  0  0
  1  3  2  0  0  0  0
  1  4  1  0  0  0  0
  4  5  1  0  0  0  0
  4  6  1  0  0  0  0
  4  7  1  0  0  0  0
  7  8  1  0  0  0  0
  7  9  1  0  0  0  0
  7 10  1  0  0  0  0
 10 11  1  0  0  0  0
 10 12  1  0  0  0  0
 10 13  1  0  0  0  0
M  END
> <VConfSearch Rank>
664

> <Conf_Id>
36

> <Delta U+W>
0.272

> <U+W>
-58.060

> <U>
9.781

> <W>
-67.841

> <W(PB)>
-69.537

> <W(SA)>
1.696

> <Valence>
6.123

> <Coulomb>
3.449

> <VdW>
0.209

> <VdW6>
-3.762

> <VdW12>
3.972

> <Bond>
0.078

> <Angle>
2.428

> <Pdih>
3.616

> <Idih>
0.002

> <Tether>
0.000

$$$$
VeraChem MOL file


 13 12  0  0  0  0  0  0  0  0999 V2000     
   20.9863   19.9939   23.4434 C   0  0  0  0  0  0  0  0  0  0  0  0
   22.0116   19.3449   23.5137 O   0  5  0  0  0  0  0  0  0  0  0  0
   20.7419   20.9263   24.1821 O   0  0  0  0  0  0  0  0  0  0  0  0
   19.9360   19.6448   22.3871 C   0  0  0  0  0  0  0  0  0  0  0  0
   19.7722   20.5423   21.7788 H   0  0  0  0  0  0  0  0  0  0  0  0
   18.9967   19.4395   22.9143 H   0  0  0  0  0  0  0  0  0  0  0  0
   20.2912   18.4477   21.4671 C   0  0  0  0  0  0  0  0  0  0  0  0
   21.2343   18.6542   20.9420 H   0  0  0  0  0  0  0  0  0  0  0  0
   20.4579   17.5501   22.0789 H   0  0  0  0  0  0  0  0  0  0  0  0
   19.1773   18.1706   20.4374 C   0  0  0  0  0  0  0  0  0  0  0  0
   19.0128   19.0436   19.7921 H   0  0  0  0  0  0  0  0  0  0  0  0
   19.4463   17.3211   19.7961 H   0  0  0  0  0  0  0  0  0  0  0  0
   18.2301   17.9307   20.9382 H   0  0  0  0  0  0  0  0  0  0  0  0
  1  2  1  0  0  0  0
  1  3  2  0  0  0  0
  1  4  1  0  0  0  0
  4  5  1  0  0  0  0
  4  6  1  0  0  0  0
  4  7  1  0  0  0  0
  7  8  1  0  0  0  0
  7  9  1  0  0  0  0
  7 10  1  0  0  0  0
 10 11  1  0  0  0  0
 10 12  1  0  0  0  0
 10 13  1  0  0  0  0
M  END
> <VConfSearch Rank>
665

> <Conf_Id>
0

> <Delta U+W>
0.000

> <U+W>
-58.332

> <U>
8.390

> <W>
-66.722

> <W(PB)>
-68.455

> <W(SA)>
1.733

> <Valence>
6.333

> <Coulomb>
1.215

> <VdW>
0.842

> <VdW6>
-3.344

> <VdW12>
4.186

> <Bond>
0.091

> <Angle>
2.713

> <Pdih>
3.529

> <Idih>
0.000

> <Tether>
0.000

$$$$
VeraChem MOL file


 13 12  0  0  0  0  0  0  0  0999 V2000     
   21.4881   18.1227   23.0041 C   0  0  0  0  0  0  0  0  0  0  0  0
   21.0981   17.4063   23.9041 O   0  5  0  0  0  0  0  0  0  0  0  0
   22.5746   18.6658   23.0015 O   0  0  0  0  0  0  0  0  0  0  0  0
   20.5559   18.3687   21.8225 C   0  0  0  0  0  0  0  0  0  0  0  0
   19.9536   17.4651   21.6690 H   0  0  0  0  0  0  0  0  0  0  0  0
   21.1711   18.5036   20.9246 H   0  0  0  0  0  0  0  0  0  0  0  0
   19.6338   19.5953   22.0256 C   0  0  0  0  0  0  0  0  0  0  0  0
   19.0299   19.4535   22.9328 H   0  0  0  0  0  0  0  0  0  0  0  0
   20.2476   20.4923   22.1881 H   0  0  0  0  0  0  0  0  0  0  0  0
   18.7048   19.8166   20.8152 C   0  0  0  0  0  0  0  0  0  0  0  0
   18.0594   20.6898   20.9776 H   0  0  0  0  0  0  0  0  0  0  0  0
   19.2864   19.9906   19.9003 H   0  0  0  0  0  0  0  0  0  0  0  0
   18.0593   18.9438   20.6507 H   0  0  0  0  0  0  0  0  0  0  0  0
  1  2  1  0  0  0  0
  1  3  2  0  0  0  0
  1  4  1  0  0  0  0
  4  5  1  0  0  0  0
  4  6  1  0  0  0  0
  4  7  1  0  0  0  0
  7  8  1  0  0  0  0
  7  9  1  0  0  0  0
  7 10  1  0  0  0  0
 10 11  1  0  0  0  0
 10 12  1  0  0  0  0
 10 13  1  0  0  0  0
M  END
> <VConfSearch Rank>
666

> <Conf_Id>
1

> <Delta U+W>
-1.339

> <U+W>
-59.672

> <U>
7.389

> <W>
-67.061

> <W(PB)>
-68.767

> <W(SA)>
1.707

> <Valence>
5.822

> <Coulomb>
1.255

> <VdW>
0.312

> <VdW6>
-3.061

> <VdW12>
3.372

> <Bond>
0.059

> <Angle>
2.241

> <Pdih>
3.522

> <Idih>
0.000

> <Tether>
0.000

$$$$
VeraChem MOL file


 13 12  0  0  0  0  0  0  0  0999 V2000     
   19.6319   20.1978   20.7911 C   0  0  0  0  0  0  0  0  0  0  0  0
   18.5194   20.0671   20.3205 O   0  5  0  0  0  0  0  0  0  0  0  0
   20.1113   21.2740   21.0875 O   0  0  0  0  0  0  0  0  0  0  0  0
   20.4833   18.9456   20.9856 C   0  0  0  0  0  0  0  0  0  0  0  0
   21.5312   19.2480   21.1032 H   0  0  0  0  0  0  0  0  0  0  0  0
   20.4241   18.3627   20.0588 H   0  0  0  0  0  0  0  0  0  0  0  0
   20.0459   18.0601   22.1805 C   0  0  0  0  0  0  0  0  0  0  0  0
   18.9841   17.7972   22.0741 H   0  0  0  0  0  0  0  0  0  0  0  0
   20.6087   17.1169   22.1545 H   0  0  0  0  0  0  0  0  0  0  0  0
   20.2784   18.7482   23.5415 C   0  0  0  0  0  0  0  0  0  0  0  0
   19.6944   19.6748   23.6201 H   0  0  0  0  0  0  0  0  0  0  0  0
   19.9772   18.0880   24.3653 H   0  0  0  0  0  0  0  0  0  0  0  0
   21.3383   18.9998   23.6781 H   0  0  0  0  0  0  0  0  0  0  0  0
  1  2  1  0  0  0  0
  1  3  2  0  0  0  0
  1  4  1  0  0  0  0
  4  5  1  0  0  0  0
  4  6  1  0  0  0  0
  4  7  1  0  0  0  0
  7  8  1  0  0  0  0
  7  9  1  0  0  0  0
  7 10  1  0  0  0  0
 10 11  1  0  0  0  0
 10 12  1  0  0  0  0
 10 13  1  0  0  0  0
M  END
> <VConfSearch Rank>
667

> <Conf_Id>
4

> <Delta U+W>
0.281

> <U+W>
-58.051

> <U>
9.781

> <W>
-67.832

> <W(PB)>
-69.535

> <W(SA)>
1.703

> <Valence>
6.123

> <Coulomb>
3.449

> <VdW>
0.209

> <VdW6>
-3.762

> <VdW12>
3.972

> <Bond>
0.078

> <Angle>
2.428

> <Pdih>
3.616

> <Idih>
0.002

> <Tether>
0.000

$$$$
VeraChem MOL file


 13 12  0  0  0  0  0  0  0  0999 V2000     
   19.5299   17.4819   21.1856 C   0  0  0  0  0  0  0  0  0  0  0  0
   18.8121   17.7834   20.2530 O   0  5  0  0  0  0  0  0  0  0  0  0
   20.3056   16.5472   21.1586 O   0  0  0  0  0  0  0  0  0  0  0  0
   19.4282   18.2967   22.4726 C   0  0  0  0  0  0  0  0  0  0  0  0
   19.3462   17.5862   23.3038 H   0  0  0  0  0  0  0  0  0  0  0  0
   18.4932   18.8700   22.4527 H   0  0  0  0  0  0  0  0  0  0  0  0
   20.6301   19.2439   22.7208 C   0  0  0  0  0  0  0  0  0  0  0  0
   20.5487   19.6720   23.7292 H   0  0  0  0  0  0  0  0  0  0  0  0
   21.5647   18.6659   22.6977 H   0  0  0  0  0  0  0  0  0  0  0  0
   20.7008   20.3902   21.6909 C   0  0  0  0  0  0  0  0  0  0  0  0
   19.7845   20.9947   21.7130 H   0  0  0  0  0  0  0  0  0  0  0  0
   21.5496   21.0522   21.9065 H   0  0  0  0  0  0  0  0  0  0  0  0
   20.8273   19.9988   20.6727 H   0  0  0  0  0  0  0  0  0  0  0  0
  1  2  1  0  0  0  0
  1  3  2  0  0  0  0
  1  4  1  0  0  0  0
  4  5  1  0  0  0  0
  4  6  1  0  0  0  0
  4  7  1  0  0  0  0
  7  8  1  0  0  0  0
  7  9  1  0  0  0  0
  7 10  1  0  0  0  0
 10 11  1  0  0  0  0
 10 12  1  0  0  0  0
 10 13  1  0  0  0  0
M  END
> <VConfSearch Rank>
668

> <Conf_Id>
36

> <Delta U+W>
0.272

> <U+W>
-58.060

> <U>
9.781

> <W>
-67.841

> <W(PB)>
-69.537

> <W(SA)>
1.696

> <Valence>
6.123

> <Coulomb>
3.449

> <VdW>
0.209

> <VdW6>
-3.762

> <VdW12>
3.972

> <Bond>
0.078

> <Angle>
2.428

> <Pdih>
3.616

> <Idih>
0.002

> <Tether>
0.000

$$$$
VeraChem MOL file


 13 12  0  0  0  0  0  0  0  0999 V2000     
   19.5157   17.4796   20.4149 C   0  0  0  0  0  0  0  0  0  0  0  0
   19.9998   17.9513   19.4047 O   0  5  0  0  0  0  0  0  0  0  0  0
   18.9333   16.4141   20.4340 O   0  0  0  0  0  0  0  0  0  0  0  0
   19.6280   18.2388   21.7384 C   0  0  0  0  0  0  0  0  0  0  0  0
   20.1291   17.5766   22.4545 H   0  0  0  0  0  0  0  0  0  0  0  0
   18.6095   18.4010   22.1106 H   0  0  0  0  0  0  0  0  0  0  0  0
   20.3795   19.5938   21.6655 C   0  0  0  0  0  0  0  0  0  0  0  0
   21.3990   19.4294   21.2894 H   0  0  0  0  0  0  0  0  0  0  0  0
   19.8776   20.2547   20.9451 H   0  0  0  0  0  0  0  0  0  0  0  0
   20.4427   20.2848   23.0426 C   0  0  0  0  0  0  0  0  0  0  0  0
   20.9681   19.6564   23.7737 H   0  0  0  0  0  0  0  0  0  0  0  0
   20.9775   21.2409   22.9711 H   0  0  0  0  0  0  0  0  0  0  0  0
   19.4345   20.4883   23.4267 H   0  0  0  0  0  0  0  0  0  0  0  0
  1  2  1  0  0  0  0
  1  3  2  0  0  0  0
  1  4  1  0  0  0  0
  4  5  1  0  0  0  0
  4  6  1  0  0  0  0
  4  7  1  0  0  0  0
  7  8  1  0  0  0  0
  7  9  1  0  0  0  0
  7 10  1  0  0  0  0
 10 11  1  0  0  0  0
 10 12  1  0  0  0  0
 10 13  1  0  0  0  0
M  END
> <VConfSearch Rank>
669

> <Conf_Id>
0

> <Delta U+W>
0.000

> <U+W>
-58.332

> <U>
8.390

> <W>
-66.722

> <W(PB)>
-68.455

> <W(SA)>
1.733

> <Valence>
6.333

> <Coulomb>
1.215

> <VdW>
0.842

> <VdW6>
-3.344

> <VdW12>
4.186

> <Bond>
0.091

> <Angle>
2.713

> <Pdih>
3.529

> <Idih>
0.000

> <Tether>
0.000

$$$$
VeraChem MOL file


 13 12  0  0  0  0  0  0  0  0999 V2000     
   19.6205   17.0601   21.1948 C   0  0  0  0  0  0  0  0  0  0  0  0
   18.4561   16.7664   21.0123 O   0  5  0  0  0  0  0  0  0  0  0  0
   20.4854   16.2468   21.4512 O   0  0  0  0  0  0  0  0  0  0  0  0
   20.0141   18.5313   21.1164 C   0  0  0  0  0  0  0  0  0  0  0  0
   19.3683   19.0185   20.3758 H   0  0  0  0  0  0  0  0  0  0  0  0
   21.0418   18.5900   20.7377 H   0  0  0  0  0  0  0  0  0  0  0  0
   19.9059   19.2591   22.4782 C   0  0  0  0  0  0  0  0  0  0  0  0
   18.8752   19.1852   22.8524 H   0  0  0  0  0  0  0  0  0  0  0  0
   20.5491   18.7568   23.2143 H   0  0  0  0  0  0  0  0  0  0  0  0
   20.3101   20.7427   22.3654 C   0  0  0  0  0  0  0  0  0  0  0  0
   20.2270   21.2414   23.3399 H   0  0  0  0  0  0  0  0  0  0  0  0
   21.3480   20.8420   22.0212 H   0  0  0  0  0  0  0  0  0  0  0  0
   19.6612   21.2737   21.6565 H   0  0  0  0  0  0  0  0  0  0  0  0
  1  2  1  0  0  0  0
  1  3  2  0  0  0  0
  1  4  1  0  0  0  0
  4  5  1  0  0  0  0
  4  6  1  0  0  0  0
  4  7  1  0  0  0  0
  7  8  1  0  0  0  0
  7  9  1  0  0  0  0
  7 10  1  0  0  0  0
 10 11  1  0  0  0  0
 10 12  1  0  0  0  0
 10 13  1  0  0  0  0
M  END
> <VConfSearch Rank>
670

> <Conf_Id>
1

> <Delta U+W>
-1.339

> <U+W>
-59.672

> <U>
7.389

> <W>
-67.061

> <W(PB)>
-68.767

> <W(SA)>
1.707

> <Valence>
5.822

> <Coulomb>
1.255

> <VdW>
0.312

> <VdW6>
-3.061

> <VdW12>
3.372

> <Bond>
0.059

> <Angle>
2.241

> <Pdih>
3.522

> <Idih>
0.000

> <Tether>
0.000

$$$$
VeraChem MOL file


 13 12  0  0  0  0  0  0  0  0999 V2000     
   20.6115   20.5433   21.2957 C   0  0  0  0  0  0  0  0  0  0  0  0
   19.9473   21.5039   21.6307 O   0  5  0  0  0  0  0  0  0  0  0  0
   21.8190   20.5764   21.1666 O   0  0  0  0  0  0  0  0  0  0  0  0
   19.8841   19.2371   20.9866 C   0  0  0  0  0  0  0  0  0  0  0  0
   20.5542   18.5903   20.4071 H   0  0  0  0  0  0  0  0  0  0  0  0
   19.0371   19.4809   20.3343 H   0  0  0  0  0  0  0  0  0  0  0  0
   19.3692   18.4853   22.2408 C   0  0  0  0  0  0  0  0  0  0  0  0
   18.7324   19.1552   22.8355 H   0  0  0  0  0  0  0  0  0  0  0  0
   18.7347   17.6469   21.9226 H   0  0  0  0  0  0  0  0  0  0  0  0
   20.5174   17.9439   23.1174 C   0  0  0  0  0  0  0  0  0  0  0  0
   21.1482   18.7616   23.4907 H   0  0  0  0  0  0  0  0  0  0  0  0
   20.1192   17.4012   23.9846 H   0  0  0  0  0  0  0  0  0  0  0  0
   21.1540   17.2540   22.5481 H   0  0  0  0  0  0  0  0  0  0  0  0
  1  2  1  0  0  0  0
  1  3  2  0  0  0  0
  1  4  1  0  0  0  0
  4  5  1  0  0  0  0
  4  6  1  0  0  0  0
  4  7  1  0  0  0  0
  7  8  1  0  0  0  0
  7  9  1  0  0  0  0
  7 10  1  0  0  0  0
 10 11  1  0  0  0  0
 10 12  1  0  0  0  0
 10 13  1  0  0  0  0
M  END
> <VConfSearch Rank>
671

> <Conf_Id>
4

> <Delta U+W>
0.281

> <U+W>
-58.051

> <U>
9.781

> <W>
-67.832

> <W(PB)>
-69.535

> <W(SA)>
1.703

> <Valence>
6.123

> <Coulomb>
3.449

> <VdW>
0.209

> <VdW6>
-3.762

> <VdW12>
3.972

> <Bond>
0.078

> <Angle>
2.428

> <Pdih>
3.616

> <Idih>
0.002

> <Tether>
0.000

$$$$
VeraChem MOL file


 13 12  0  0  0  0  0  0  0  0999 V2000     
   21.2074   20.2719   22.5638 C   0  0  0  0  0  0  0  0  0  0  0  0
   20.5776   21.3030   22.6908 O   0  5  0  0  0  0  0  0  0  0  0  0
   22.0962   19.9328   23.3194 O   0  0  0  0  0  0  0  0  0  0  0  0
   20.8915   19.3707   21.3726 C   0  0  0  0  0  0  0  0  0  0  0  0
   21.8451   19.1091   20.8986 H   0  0  0  0  0  0  0  0  0  0  0  0
   20.3199   19.9489   20.6363 H   0  0  0  0  0  0  0  0  0  0  0  0
   20.1271   18.0739   21.7431 C   0  0  0  0  0  0  0  0  0  0  0  0
   20.0764   17.4214   20.8607 H   0  0  0  0  0  0  0  0  0  0  0  0
   20.6880   17.5231   22.5112 H   0  0  0  0  0  0  0  0  0  0  0  0
   18.6956   18.3552   22.2446 C   0  0  0  0  0  0  0  0  0  0  0  0
   18.1101   18.8861   21.4826 H   0  0  0  0  0  0  0  0  0  0  0  0
   18.1764   17.4168   22.4790 H   0  0  0  0  0  0  0  0  0  0  0  0
   18.7098   18.9702   23.1543 H   0  0  0  0  0  0  0  0  0  0  0  0
  1  2  1  0  0  0  0
  1  3  2  0  0  0  0
  1  4  1  0  0  0  0
  4  5  1  0  0  0  0
  4  6  1  0  0  0  0
  4  7  1  0  0  0  0
  7  8  1  0  0  0  0
  7  9  1  0  0  0  0
  7 10  1  0  0  0  0
 10 11  1  0  0  0  0
 10 12  1  0  0  0  0
 10 13  1  0  0  0  0
M  END
> <VConfSearch Rank>
672

> <Conf_Id>
36

> <Delta U+W>
0.272

> <U+W>
-58.060

> <U>
9.781

> <W>
-67.841

> <W(PB)>
-69.537

> <W(SA)>
1.696

> <Valence>
6.123

> <Coulomb>
3.449

> <VdW>
0.209

> <VdW6>
-3.762

> <VdW12>
3.972

> <Bond>
0.078

> <Angle>
2.428

> <Pdih>
3.616

> <Idih>
0.002

> <Tether>
0.000

$$$$
VeraChem MOL file


 13 12  0  0  0  0  0  0  0  0999 V2000     
   20.1500   20.3828   23.4399 C   0  0  0  0  0  0  0  0  0  0  0  0
   19.7319   21.3872   22.8980 O   0  5  0  0  0  0  0  0  0  0  0  0
   20.5024   20.3561   24.6018 O   0  0  0  0  0  0  0  0  0  0  0  0
   20.2493   19.0769   22.6490 C   0  0  0  0  0  0  0  0  0  0  0  0
   19.6530   18.3258   23.1805 H   0  0  0  0  0  0  0  0  0  0  0  0
   21.2938   18.7460   22.6926 H   0  0  0  0  0  0  0  0  0  0  0  0
   19.7886   19.1590   21.1702 C   0  0  0  0  0  0  0  0  0  0  0  0
   18.7426   19.4936   21.1286 H   0  0  0  0  0  0  0  0  0  0  0  0
   20.3854   19.9144   20.6401 H   0  0  0  0  0  0  0  0  0  0  0  0
   19.9242   17.7996   20.4551 C   0  0  0  0  0  0  0  0  0  0  0  0
   19.3116   17.0334   20.9483 H   0  0  0  0  0  0  0  0  0  0  0  0
   19.5939   17.8774   19.4111 H   0  0  0  0  0  0  0  0  0  0  0  0
   20.9676   17.4576   20.4559 H   0  0  0  0  0  0  0  0  0  0  0  0
  1  2  1  0  0  0  0
  1  3  2  0  0  0  0
  1  4  1  0  0  0  0
  4  5  1  0  0  0  0
  4  6  1  0  0  0  0
  4  7  1  0  0  0  0
  7  8  1  0  0  0  0
  7  9  1  0  0  0  0
  7 10  1  0  0  0  0
 10 11  1  0  0  0  0
 10 12  1  0  0  0  0
 10 13  1  0  0  0  0
M  END
> <VConfSearch Rank>
673

> <Conf_Id>
0

> <Delta U+W>
0.000

> <U+W>
-58.332

> <U>
8.390

> <W>
-66.722

> <W(PB)>
-68.455

> <W(SA)>
1.733

> <Valence>
6.333

> <Coulomb>
1.215

> <VdW>
0.842

> <VdW6>
-3.344

> <VdW12>
4.186

> <Bond>
0.091

> <Angle>
2.713

> <Pdih>
3.529

> <Idih>
0.000

> <Tether>
0.000

$$$$
VeraChem MOL file


 13 12  0  0  0  0  0  0  0  0999 V2000     
   22.0490   18.6433   21.5841 C   0  0  0  0  0  0  0  0  0  0  0  0
   22.4148   17.5209   21.8700 O   0  5  0  0  0  0  0  0  0  0  0  0
   22.7834   19.6107   21.5915 O   0  0  0  0  0  0  0  0  0  0  0  0
   20.5844   18.8523   21.2141 C   0  0  0  0  0  0  0  0  0  0  0  0
   20.2261   17.9449   20.7128 H   0  0  0  0  0  0  0  0  0  0  0  0
   20.5301   19.6682   20.4831 H   0  0  0  0  0  0  0  0  0  0  0  0
   19.6920   19.1727   22.4374 C   0  0  0  0  0  0  0  0  0  0  0  0
   19.7620   18.3536   23.1668 H   0  0  0  0  0  0  0  0  0  0  0  0
   20.0660   20.0774   22.9370 H   0  0  0  0  0  0  0  0  0  0  0  0
   18.2191   19.3782   22.0304 C   0  0  0  0  0  0  0  0  0  0  0  0
   17.6027   19.6042   22.9102 H   0  0  0  0  0  0  0  0  0  0  0  0
   18.1197   20.2124   21.3234 H   0  0  0  0  0  0  0  0  0  0  0  0
   17.8134   18.4754   21.5551 H   0  0  0  0  0  0  0  0  0  0  0  0
  1  2  1  0  0  0  0
  1  3  2  0  0  0  0
  1  4  1  0  0  0  0
  4  5  1  0  0  0  0
  4  6  1  0  0  0  0
  4  7  1  0  0  0  0
  7  8  1  0  0  0  0
  7  9  1  0  0  0  0
  7 10  1  0  0  0  0
 10 11  1  0  0  0  0
 10 12  1  0  0  0  0
 10 13  1  0  0  0  0
M  END
> <VConfSearch Rank>
674

> <Conf_Id>
1

> <Delta U+W>
-1.339

> <U+W>
-59.672

> <U>
7.389

> <W>
-67.061

> <W(PB)>
-68.767

> <W(SA)>
1.707

> <Valence>
5.822

> <Coulomb>
1.255

> <VdW>
0.312

> <VdW6>
-3.061

> <VdW12>
3.372

> <Bond>
0.059

> <Angle>
2.241

> <Pdih>
3.522

> <Idih>
0.000

> <Tether>
0.000

$$$$
VeraChem MOL file


 13 12  0  0  0  0  0  0  0  0999 V2000     
   19.4832   20.5430   21.4340 C   0  0  0  0  0  0  0  0  0  0  0  0
   19.4282   20.6969   20.2301 O   0  5  0  0  0  0  0  0  0  0  0  0
   18.6210   20.9281   22.1983 O   0  0  0  0  0  0  0  0  0  0  0  0
   20.7186   19.8616   22.0173 C   0  0  0  0  0  0  0  0  0  0  0  0
   20.7685   20.0834   23.0904 H   0  0  0  0  0  0  0  0  0  0  0  0
   21.5975   20.3279   21.5564 H   0  0  0  0  0  0  0  0  0  0  0  0
   20.7670   18.3295   21.7859 C   0  0  0  0  0  0  0  0  0  0  0  0
   20.6748   18.1167   20.7116 H   0  0  0  0  0  0  0  0  0  0  0  0
   21.7486   17.9489   22.0999 H   0  0  0  0  0  0  0  0  0  0  0  0
   19.6643   17.5801   22.5621 C   0  0  0  0  0  0  0  0  0  0  0  0
   18.6656   17.9046   22.2410 H   0  0  0  0  0  0  0  0  0  0  0  0
   19.7390   16.4981   22.3924 H   0  0  0  0  0  0  0  0  0  0  0  0
   19.7517   17.7614   23.6414 H   0  0  0  0  0  0  0  0  0  0  0  0
  1  2  1  0  0  0  0
  1  3  2  0  0  0  0
  1  4  1  0  0  0  0
  4  5  1  0  0  0  0
  4  6  1  0  0  0  0
  4  7  1  0  0  0  0
  7  8  1  0  0  0  0
  7  9  1  0  0  0  0
  7 10  1  0  0  0  0
 10 11  1  0  0  0  0
 10 12  1  0  0  0  0
 10 13  1  0  0  0  0
M  END
> <VConfSearch Rank>
675

> <Conf_Id>
4

> <Delta U+W>
0.281

> <U+W>
-58.051

> <U>
9.781

> <W>
-67.832

> <W(PB)>
-69.535

> <W(SA)>
1.703

> <Valence>
6.123

> <Coulomb>
3.449

> <VdW>
0.209

> <VdW6>
-3.762

> <VdW12>
3.972

> <Bond>
0.078

> <Angle>
2.428

> <Pdih>
3.616

> <Idih>
0.002

> <Tether>
0.000

$$$$
VeraChem MOL file


 13 12  0  0  0  0  0  0  0  0999 V2000     
   19.8760   17.2522   21.5396 C   0  0  0  0  0  0  0  0  0  0  0  0
   18.7930   17.1214   21.0048 O   0  5  0  0  0  0  0  0  0  0  0  0
   20.8714   16.6479   21.1929 O   0  0  0  0  0  0  0  0  0  0  0  0
   19.9867   18.1981   22.7328 C   0  0  0  0  0  0  0  0  0  0  0  0
   20.5183   17.6612   23.5275 H   0  0  0  0  0  0  0  0  0  0  0  0
   18.9782   18.4062   23.1110 H   0  0  0  0  0  0  0  0  0  0  0  0
   20.7255   19.5255   22.4240 C   0  0  0  0  0  0  0  0  0  0  0  0
   20.8913   20.0719   23.3625 H   0  0  0  0  0  0  0  0  0  0  0  0
   21.7183   19.3054   22.0072 H   0  0  0  0  0  0  0  0  0  0  0  0
   19.9390   20.4259   21.4490 C   0  0  0  0  0  0  0  0  0  0  0  0
   18.9509   20.6766   21.8566 H   0  0  0  0  0  0  0  0  0  0  0  0
   20.4794   21.3640   21.2674 H   0  0  0  0  0  0  0  0  0  0  0  0
   19.7930   19.9271   20.4817 H   0  0  0  0  0  0  0  0  0  0  0  0
  1  2  1  0  0  0  0
  1  3  2  0  0  0  0
  1  4  1  0  0  0  0
  4  5  1  0  0  0  0
  4  6  1  0  0  0  0
  4  7  1  0  0  0  0
  7  8  1  0  0  0  0
  7  9  1  0  0  0  0
  7 10  1  0  0  0  0
 10 11  1  0  0  0  0
 10 12  1  0  0  0  0
 10 13  1  0  0  0  0
M  END
> <VConfSearch Rank>
676

> <Conf_Id>
36

> <Delta U+W>
0.272

> <U+W>
-58.060

> <U>
9.781

> <W>
-67.841

> <W(PB)>
-69.537

> <W(SA)>
1.696

> <Valence>
6.123

> <Coulomb>
3.449

> <VdW>
0.209

> <VdW6>
-3.762

> <VdW12>
3.972

> <Bond>
0.078

> <Angle>
2.428

> <Pdih>
3.616

> <Idih>
0.002

> <Tether>
0.000

$$$$
VeraChem MOL file


 13 12  0  0  0  0  0  0  0  0999 V2000     
   22.0243   19.4767   21.2601 C   0  0  0  0  0  0  0  0  0  0  0  0
   22.0749   20.6392   21.6116 O   0  5  0  0  0  0  0  0  0  0  0  0
   22.9604   18.9006   20.7438 O   0  0  0  0  0  0  0  0  0  0  0  0
   20.7367   18.6759   21.4635 C   0  0  0  0  0  0  0  0  0  0  0  0
   20.9888   17.7988   22.0714 H   0  0  0  0  0  0  0  0  0  0  0  0
   20.4229   18.3048   20.4806 H   0  0  0  0  0  0  0  0  0  0  0  0
   19.5688   19.4525   22.1260 C   0  0  0  0  0  0  0  0  0  0  0  0
   19.8863   19.8260   23.1096 H   0  0  0  0  0  0  0  0  0  0  0  0
   19.3197   20.3326   21.5169 H   0  0  0  0  0  0  0  0  0  0  0  0
   18.3168   18.5674   22.2899 C   0  0  0  0  0  0  0  0  0  0  0  0
   18.5319   17.6955   22.9216 H   0  0  0  0  0  0  0  0  0  0  0  0
   17.5020   19.1335   22.7598 H   0  0  0  0  0  0  0  0  0  0  0  0
   17.9608   18.2061   21.3161 H   0  0  0  0  0  0  0  0  0  0  0  0
  1  2  1  0  0  0  0
  1  3  2  0  0  0  0
  1  4  1  0  0  0  0
  4  5  1  0  0  0  0
  4  6  1  0  0  0  0
  4  7  1  0  0  0  0
  7  8  1  0  0  0  0
  7  9  1  0  0  0  0
  7 10  1  0  0  0  0
 10 11  1  0  0  0  0
 10 12  1  0  0  0  0
 10 13  1  0  0  0  0
M  END
> <VConfSearch Rank>
677

> <Conf_Id>
0

> <Delta U+W>
0.000

> <U+W>
-58.332

> <U>
8.390

> <W>
-66.722

> <W(PB)>
-68.455

> <W(SA)>
1.733

> <Valence>
6.333

> <Coulomb>
1.215

> <VdW>
0.842

> <VdW6>
-3.344

> <VdW12>
4.186

> <Bond>
0.091

> <Angle>
2.713

> <Pdih>
3.529

> <Idih>
0.000

> <Tether>
0.000

$$$$
VeraChem MOL file


 13 12  0  0  0  0  0  0  0  0999 V2000     
   20.9662   20.5049   20.6663 C   0  0  0  0  0  0  0  0  0  0  0  0
   20.7909   20.4364   19.4663 O   0  5  0  0  0  0  0  0  0  0  0  0
   21.9358   21.0317   21.1738 O   0  0  0  0  0  0  0  0  0  0  0  0
   19.9218   19.8793   21.5846 C   0  0  0  0  0  0  0  0  0  0  0  0
   18.9414   19.9755   21.1022 H   0  0  0  0  0  0  0  0  0  0  0  0
   19.8856   20.4665   22.5104 H   0  0  0  0  0  0  0  0  0  0  0  0
   20.2132   18.3937   21.9072 C   0  0  0  0  0  0  0  0  0  0  0  0
   20.2569   17.8175   20.9724 H   0  0  0  0  0  0  0  0  0  0  0  0
   21.2012   18.3085   22.3809 H   0  0  0  0  0  0  0  0  0  0  0  0
   19.1404   17.7912   22.8364 C   0  0  0  0  0  0  0  0  0  0  0  0
   19.3640   16.7385   23.0535 H   0  0  0  0  0  0  0  0  0  0  0  0
   19.0984   18.3326   23.7907 H   0  0  0  0  0  0  0  0  0  0  0  0
   18.1469   17.8378   22.3714 H   0  0  0  0  0  0  0  0  0  0  0  0
  1  2  1  0  0  0  0
  1  3  2  0  0  0  0
  1  4  1  0  0  0  0
  4  5  1  0  0  0  0
  4  6  1  0  0  0  0
  4  7  1  0  0  0  0
  7  8  1  0  0  0  0
  7  9  1  0  0  0  0
  7 10  1  0  0  0  0
 10 11  1  0  0  0  0
 10 12  1  0  0  0  0
 10 13  1  0  0  0  0
M  END
> <VConfSearch Rank>
678

> <Conf_Id>
1

> <Delta U+W>
-1.339

> <U+W>
-59.672

> <U>
7.389

> <W>
-67.061

> <W(PB)>
-68.767

> <W(SA)>
1.707

> <Valence>
5.822

> <Coulomb>
1.255

> <VdW>
0.312

> <VdW6>
-3.061

> <VdW12>
3.372

> <Bond>
0.059

> <Angle>
2.241

> <Pdih>
3.522

> <Idih>
0.000

> <Tether>
0.000

$$$$
VeraChem MOL file


 13 12  0  0  0  0  0  0  0  0999 V2000     
   18.7012   20.0356   21.7904 C   0  0  0  0  0  0  0  0  0  0  0  0
   18.6036   20.5922   20.7149 O   0  5  0  0  0  0  0  0  0  0  0  0
   17.7536   19.5718   22.3928 O   0  0  0  0  0  0  0  0  0  0  0  0
   20.0833   19.9473   22.4330 C   0  0  0  0  0  0  0  0  0  0  0  0
   19.9612   19.7223   23.4996 H   0  0  0  0  0  0  0  0  0  0  0  0
   20.5376   20.9433   22.3696 H   0  0  0  0  0  0  0  0  0  0  0  0
   21.0251   18.9081   21.7724 C   0  0  0  0  0  0  0  0  0  0  0  0
   21.1076   19.1181   20.6968 H   0  0  0  0  0  0  0  0  0  0  0  0
   22.0338   19.0177   22.1936 H   0  0  0  0  0  0  0  0  0  0  0  0
   20.5452   17.4575   21.9848 C   0  0  0  0  0  0  0  0  0  0  0  0
   19.5556   17.2994   21.5359 H   0  0  0  0  0  0  0  0  0  0  0  0
   21.2433   16.7474   21.5226 H   0  0  0  0  0  0  0  0  0  0  0  0
   20.4770   17.2193   23.0544 H   0  0  0  0  0  0  0  0  0  0  0  0
  1  2  1  0  0  0  0
  1  3  2  0  0  0  0
  1  4  1  0  0  0  0
  4  5  1  0  0  0  0
  4  6  1  0  0  0  0
  4  7  1  0  0  0  0
  7  8  1  0  0  0  0
  7  9  1  0  0  0  0
  7 10  1  0  0  0  0
 10 11  1  0  0  0  0
 10 12  1  0  0  0  0
 10 13  1  0  0  0  0
M  END
> <VConfSearch Rank>
679

> <Conf_Id>
4

> <Delta U+W>
0.281

> <U+W>
-58.051

> <U>
9.781

> <W>
-67.832

> <W(PB)>
-69.535

> <W(SA)>
1.703

> <Valence>
6.123

> <Coulomb>
3.449

> <VdW>
0.209

> <VdW6>
-3.762

> <VdW12>
3.972

> <Bond>
0.078

> <Angle>
2.428

> <Pdih>
3.616

> <Idih>
0.002

> <Tether>
0.000

$$$$
VeraChem MOL file


 13 12  0  0  0  0  0  0  0  0999 V2000     
   19.9944   17.8125   23.3608 C   0  0  0  0  0  0  0  0  0  0  0  0
   18.8840   17.8756   23.8495 O   0  5  0  0  0  0  0  0  0  0  0  0
   20.6139   16.7746   23.2378 O   0  0  0  0  0  0  0  0  0  0  0  0
   20.6634   19.1085   22.9095 C   0  0  0  0  0  0  0  0  0  0  0  0
   21.6811   19.1105   23.3177 H   0  0  0  0  0  0  0  0  0  0  0  0
   20.1365   19.9542   23.3682 H   0  0  0  0  0  0  0  0  0  0  0  0
   20.7247   19.2887   21.3710 C   0  0  0  0  0  0  0  0  0  0  0  0
   21.3487   20.1616   21.1354 H   0  0  0  0  0  0  0  0  0  0  0  0
   21.2175   18.4169   20.9180 H   0  0  0  0  0  0  0  0  0  0  0  0
   19.3290   19.4828   20.7432 C   0  0  0  0  0  0  0  0  0  0  0  0
   18.8274   20.3630   21.1663 H   0  0  0  0  0  0  0  0  0  0  0  0
   19.4096   19.6269   19.6579 H   0  0  0  0  0  0  0  0  0  0  0  0
   18.6907   18.6072   20.9216 H   0  0  0  0  0  0  0  0  0  0  0  0
  1  2  1  0  0  0  0
  1  3  2  0  0  0  0
  1  4  1  0  0  0  0
  4  5  1  0  0  0  0
  4  6  1  0  0  0  0
  4  7  1  0  0  0  0
  7  8  1  0  0  0  0
  7  9  1  0  0  0  0
  7 10  1  0  0  0  0
 10 11  1  0  0  0  0
 10 12  1  0  0  0  0
 10 13  1  0  0  0  0
M  END
> <VConfSearch Rank>
680

> <Conf_Id>
36

> <Delta U+W>
0.272

> <U+W>
-58.060

> <U>
9.781

> <W>
-67.841

> <W(PB)>
-69.537

> <W(SA)>
1.696

> <Valence>
6.123

> <Coulomb>
3.449

> <VdW>
0.209

> <VdW6>
-3.762

> <VdW12>
3.972

> <Bond>
0.078

> <Angle>
2.428

> <Pdih>
3.616

> <Idih>
0.002

> <Tether>
0.000

$$$$
VeraChem MOL file


 13 12  0  0  0  0  0  0  0  0999 V2000     
   19.3049   19.4871   23.7692 C   0  0  0  0  0  0  0  0  0  0  0  0
   19.1636   20.6886   23.6520 O   0  5  0  0  0  0  0  0  0  0  0  0
   19.0549   18.8888   24.7960 O   0  0  0  0  0  0  0  0  0  0  0  0
   19.8196   18.6629   22.5875 C   0  0  0  0  0  0  0  0  0  0  0  0
   19.0685   17.8935   22.3726 H   0  0  0  0  0  0  0  0  0  0  0  0
   20.7251   18.1421   22.9208 H   0  0  0  0  0  0  0  0  0  0  0  0
   20.1253   19.4691   21.2981 C   0  0  0  0  0  0  0  0  0  0  0  0
   19.2174   19.9925   20.9673 H   0  0  0  0  0  0  0  0  0  0  0  0
   20.8760   20.2415   21.5162 H   0  0  0  0  0  0  0  0  0  0  0  0
   20.6373   18.5576   20.1645 C   0  0  0  0  0  0  0  0  0  0  0  0
   19.8909   17.7950   19.9061 H   0  0  0  0  0  0  0  0  0  0  0  0
   20.8480   19.1453   19.2614 H   0  0  0  0  0  0  0  0  0  0  0  0
   21.5628   18.0459   20.4595 H   0  0  0  0  0  0  0  0  0  0  0  0
  1  2  1  0  0  0  0
  1  3  2  0  0  0  0
  1  4  1  0  0  0  0
  4  5  1  0  0  0  0
  4  6  1  0  0  0  0
  4  7  1  0  0  0  0
  7  8  1  0  0  0  0
  7  9  1  0  0  0  0
  7 10  1  0  0  0  0
 10 11  1  0  0  0  0
 10 12  1  0  0  0  0
 10 13  1  0  0  0  0
M  END
> <VConfSearch Rank>
681

> <Conf_Id>
0

> <Delta U+W>
0.000

> <U+W>
-58.332

> <U>
8.390

> <W>
-66.722

> <W(PB)>
-68.455

> <W(SA)>
1.733

> <Valence>
6.333

> <Coulomb>
1.215

> <VdW>
0.842

> <VdW6>
-3.344

> <VdW12>
4.186

> <Bond>
0.091

> <Angle>
2.713

> <Pdih>
3.529

> <Idih>
0.000

> <Tether>
0.000

$$$$
VeraChem MOL file


 13 12  0  0  0  0  0  0  0  0999 V2000     
   19.1039   17.7243   23.2271 C   0  0  0  0  0  0  0  0  0  0  0  0
   17.8962   17.7956   23.3358 O   0  5  0  0  0  0  0  0  0  0  0  0
   19.8330   17.3064   24.1040 O   0  0  0  0  0  0  0  0  0  0  0  0
   19.7406   18.2028   21.9266 C   0  0  0  0  0  0  0  0  0  0  0  0
   19.0389   18.0005   21.1083 H   0  0  0  0  0  0  0  0  0  0  0  0
   20.6361   17.5971   21.7418 H   0  0  0  0  0  0  0  0  0  0  0  0
   20.1101   19.7057   21.9521 C   0  0  0  0  0  0  0  0  0  0  0  0
   19.2077   20.3017   22.1477 H   0  0  0  0  0  0  0  0  0  0  0  0
   20.8053   19.8982   22.7812 H   0  0  0  0  0  0  0  0  0  0  0  0
   20.7508   20.1578   20.6245 C   0  0  0  0  0  0  0  0  0  0  0  0
   21.0056   21.2250   20.6618 H   0  0  0  0  0  0  0  0  0  0  0  0
   21.6722   19.5961   20.4217 H   0  0  0  0  0  0  0  0  0  0  0  0
   20.0623   20.0028   19.7833 H   0  0  0  0  0  0  0  0  0  0  0  0
  1  2  1  0  0  0  0
  1  3  2  0  0  0  0
  1  4  1  0  0  0  0
  4  5  1  0  0  0  0
  4  6  1  0  0  0  0
  4  7  1  0  0  0  0
  7  8  1  0  0  0  0
  7  9  1  0  0  0  0
  7 10  1  0  0  0  0
 10 11  1  0  0  0  0
 10 12  1  0  0  0  0
 10 13  1  0  0  0  0
M  END
> <VConfSearch Rank>
682

> <Conf_Id>
1

> <Delta U+W>
-1.339

> <U+W>
-59.672

> <U>
7.389

> <W>
-67.061

> <W(PB)>
-68.767

> <W(SA)>
1.707

> <Valence>
5.822

> <Coulomb>
1.255

> <VdW>
0.312

> <VdW6>
-3.061

> <VdW12>
3.372

> <Bond>
0.059

> <Angle>
2.241

> <Pdih>
3.522

> <Idih>
0.000

> <Tether>
0.000

$$$$
VeraChem MOL file


 13 12  0  0  0  0  0  0  0  0999 V2000     
   20.3789   18.0428   23.5106 C   0  0  0  0  0  0  0  0  0  0  0  0
   20.5667   16.8494   23.3812 O   0  5  0  0  0  0  0  0  0  0  0  0
   20.9763   18.7315   24.3135 O   0  0  0  0  0  0  0  0  0  0  0  0
   19.3101   18.7020   22.6423 C   0  0  0  0  0  0  0  0  0  0  0  0
   19.0418   19.6678   23.0879 H   0  0  0  0  0  0  0  0  0  0  0  0
   18.4145   18.0712   22.6909 H   0  0  0  0  0  0  0  0  0  0  0  0
   19.7255   18.8944   21.1612 C   0  0  0  0  0  0  0  0  0  0  0  0
   20.0316   17.9280   20.7366 H   0  0  0  0  0  0  0  0  0  0  0  0
   18.8536   19.2308   20.5837 H   0  0  0  0  0  0  0  0  0  0  0  0
   20.8655   19.9205   20.9963 C   0  0  0  0  0  0  0  0  0  0  0  0
   21.7703   19.5937   21.5258 H   0  0  0  0  0  0  0  0  0  0  0  0
   21.1214   20.0474   19.9363 H   0  0  0  0  0  0  0  0  0  0  0  0
   20.5720   20.9006   21.3946 H   0  0  0  0  0  0  0  0  0  0  0  0
  1  2  1  0  0  0  0
  1  3  2  0  0  0  0
  1  4  1  0  0  0  0
  4  5  1  0  0  0  0
  4  6  1  0  0  0  0
  4  7  1  0  0  0  0
  7  8  1  0  0  0  0
  7  9  1  0  0  0  0
  7 10  1  0  0  0  0
 10 11  1  0  0  0  0
 10 12  1  0  0  0  0
 10 13  1  0  0  0  0
M  END
> <VConfSearch Rank>
683

> <Conf_Id>
4

> <Delta U+W>
0.281

> <U+W>
-58.051

> <U>
9.781

> <W>
-67.832

> <W(PB)>
-69.535

> <W(SA)>
1.703

> <Valence>
6.123

> <Coulomb>
3.449

> <VdW>
0.209

> <VdW6>
-3.762

> <VdW12>
3.972

> <Bond>
0.078

> <Angle>
2.428

> <Pdih>
3.616

> <Idih>
0.002

> <Tether>
0.000

$$$$
VeraChem MOL file


 13 12  0  0  0  0  0  0  0  0999 V2000     
   21.5007   19.9359   21.3974 C   0  0  0  0  0  0  0  0  0  0  0  0
   21.8280   19.5404   20.2963 O   0  5  0  0  0  0  0  0  0  0  0  0
   21.5104   21.1077   21.7182 O   0  0  0  0  0  0  0  0  0  0  0  0
   21.0895   18.9054   22.4460 C   0  0  0  0  0  0  0  0  0  0  0  0
   21.6340   19.1418   23.3680 H   0  0  0  0  0  0  0  0  0  0  0  0
   21.4331   17.9159   22.1201 H   0  0  0  0  0  0  0  0  0  0  0  0
   19.5678   18.8718   22.7402 C   0  0  0  0  0  0  0  0  0  0  0  0
   19.3825   18.2183   23.6037 H   0  0  0  0  0  0  0  0  0  0  0  0
   19.2262   19.8767   23.0257 H   0  0  0  0  0  0  0  0  0  0  0  0
   18.7451   18.3639   21.5381 C   0  0  0  0  0  0  0  0  0  0  0  0
   19.0556   17.3509   21.2500 H   0  0  0  0  0  0  0  0  0  0  0  0
   17.6761   18.3338   21.7859 H   0  0  0  0  0  0  0  0  0  0  0  0
   18.8720   19.0206   20.6673 H   0  0  0  0  0  0  0  0  0  0  0  0
  1  2  1  0  0  0  0
  1  3  2  0  0  0  0
  1  4  1  0  0  0  0
  4  5  1  0  0  0  0
  4  6  1  0  0  0  0
  4  7  1  0  0  0  0
  7  8  1  0  0  0  0
  7  9  1  0  0  0  0
  7 10  1  0  0  0  0
 10 11  1  0  0  0  0
 10 12  1  0  0  0  0
 10 13  1  0  0  0  0
M  END
> <VConfSearch Rank>
684

> <Conf_Id>
36

> <Delta U+W>
0.272

> <U+W>
-58.060

> <U>
9.781

> <W>
-67.841

> <W(PB)>
-69.537

> <W(SA)>
1.696

> <Valence>
6.123

> <Coulomb>
3.449

> <VdW>
0.209

> <VdW6>
-3.762

> <VdW12>
3.972

> <Bond>
0.078

> <Angle>
2.428

> <Pdih>
3.616

> <Idih>
0.002

> <Tether>
0.000

$$$$
VeraChem MOL file


 13 12  0  0  0  0  0  0  0  0999 V2000     
   21.9049   19.8309   21.2592 C   0  0  0  0  0  0  0  0  0  0  0  0
   22.1165   20.5497   22.2162 O   0  5  0  0  0  0  0  0  0  0  0  0
   22.6712   19.7348   20.3220 O   0  0  0  0  0  0  0  0  0  0  0  0
   20.6236   18.9969   21.2028 C   0  0  0  0  0  0  0  0  0  0  0  0
   20.9205   17.9467   21.0972 H   0  0  0  0  0  0  0  0  0  0  0  0
   20.0926   19.2735   20.2841 H   0  0  0  0  0  0  0  0  0  0  0  0
   19.6757   19.1519   22.4208 C   0  0  0  0  0  0  0  0  0  0  0  0
   20.2105   18.8770   23.3407 H   0  0  0  0  0  0  0  0  0  0  0  0
   19.3817   20.2055   22.5267 H   0  0  0  0  0  0  0  0  0  0  0  0
   18.4146   18.2764   22.2761 C   0  0  0  0  0  0  0  0  0  0  0  0
   18.6805   17.2139   22.1996 H   0  0  0  0  0  0  0  0  0  0  0  0
   17.7568   18.3993   23.1464 H   0  0  0  0  0  0  0  0  0  0  0  0
   17.8451   18.5530   21.3791 H   0  0  0  0  0  0  0  0  0  0  0  0
  1  2  1  0  0  0  0
  1  3  2  0  0  0  0
  1  4  1  0  0  0  0
  4  5  1  0  0  0  0
  4  6  1  0  0  0  0
  4  7  1  0  0  0  0
  7  8  1  0  0  0  0
  7  9  1  0  0  0  0
  7 10  1  0  0  0  0
 10 11  1  0  0  0  0
 10 12  1  0  0  0  0
 10 13  1  0  0  0  0
M  END
> <VConfSearch Rank>
685

> <Conf_Id>
0

> <Delta U+W>
0.000

> <U+W>
-58.332

> <U>
8.390

> <W>
-66.722

> <W(PB)>
-68.455

> <W(SA)>
1.733

> <Valence>
6.333

> <Coulomb>
1.215

> <VdW>
0.842

> <VdW6>
-3.344

> <VdW12>
4.186

> <Bond>
0.091

> <Angle>
2.713

> <Pdih>
3.529

> <Idih>
0.000

> <Tether>
0.000

$$$$
VeraChem MOL file


 13 12  0  0  0  0  0  0  0  0999 V2000     
   20.4901   20.6975   20.6234 C   0  0  0  0  0  0  0  0  0  0  0  0
   20.2308   20.5941   19.4413 O   0  5  0  0  0  0  0  0  0  0  0  0
   21.3507   21.4355   21.0595 O   0  0  0  0  0  0  0  0  0  0  0  0
   19.7059   19.8408   21.6116 C   0  0  0  0  0  0  0  0  0  0  0  0
   18.6917   19.7058   21.2165 H   0  0  0  0  0  0  0  0  0  0  0  0
   19.6152   20.3997   22.5510 H   0  0  0  0  0  0  0  0  0  0  0  0
   20.3636   18.4641   21.8723 C   0  0  0  0  0  0  0  0  0  0  0  0
   20.4583   17.9176   20.9235 H   0  0  0  0  0  0  0  0  0  0  0  0
   21.3819   18.6116   22.2583 H   0  0  0  0  0  0  0  0  0  0  0  0
   19.5475   17.6231   22.8743 C   0  0  0  0  0  0  0  0  0  0  0  0
   20.0291   16.6516   23.0462 H   0  0  0  0  0  0  0  0  0  0  0  0
   19.4643   18.1360   23.8415 H   0  0  0  0  0  0  0  0  0  0  0  0
   18.5336   17.4367   22.4964 H   0  0  0  0  0  0  0  0  0  0  0  0
  1  2  1  0  0  0  0
  1  3  2  0  0  0  0
  1  4  1  0  0  0  0
  4  5  1  0  0  0  0
  4  6  1  0  0  0  0
  4  7  1  0  0  0  0
  7  8  1  0  0  0  0
  7  9  1  0  0  0  0
  7 10  1  0  0  0  0
 10 11  1  0  0  0  0
 10 12  1  0  0  0  0
 10 13  1  0  0  0  0
M  END
> <VConfSearch Rank>
686

> <Conf_Id>
1

> <Delta U+W>
-1.339

> <U+W>
-59.672

> <U>
7.389

> <W>
-67.061

> <W(PB)>
-68.767

> <W(SA)>
1.707

> <Valence>
5.822

> <Coulomb>
1.255

> <VdW>
0.312

> <VdW6>
-3.061

> <VdW12>
3.372

> <Bond>
0.059

> <Angle>
2.241

> <Pdih>
3.522

> <Idih>
0.000

> <Tether>
0.000

$$$$
VeraChem MOL file


 13 12  0  0  0  0  0  0  0  0999 V2000     
   21.4976   17.8210   21.8851 C   0  0  0  0  0  0  0  0  0  0  0  0
   21.5453   17.1431   20.8780 O   0  5  0  0  0  0  0  0  0  0  0  0
   22.4784   18.3069   22.4122 O   0  0  0  0  0  0  0  0  0  0  0  0
   20.1366   18.0424   22.5404 C   0  0  0  0  0  0  0  0  0  0  0  0
   20.2942   18.3805   23.5720 H   0  0  0  0  0  0  0  0  0  0  0  0
   19.6395   17.0669   22.5994 H   0  0  0  0  0  0  0  0  0  0  0  0
   19.2234   19.0416   21.7848 C   0  0  0  0  0  0  0  0  0  0  0  0
   19.1058   18.7158   20.7418 H   0  0  0  0  0  0  0  0  0  0  0  0
   18.2217   19.0253   22.2354 H   0  0  0  0  0  0  0  0  0  0  0  0
   19.7690   20.4842   21.8217 C   0  0  0  0  0  0  0  0  0  0  0  0
   20.7531   20.5464   21.3384 H   0  0  0  0  0  0  0  0  0  0  0  0
   19.0902   21.1680   21.2957 H   0  0  0  0  0  0  0  0  0  0  0  0
   19.8734   20.8379   22.8558 H   0  0  0  0  0  0  0  0  0  0  0  0
  1  2  1  0  0  0  0
  1  3  2  0  0  0  0
  1  4  1  0  0  0  0
  4  5  1  0  0  0  0
  4  6  1  0  0  0  0
  4  7  1  0  0  0  0
  7  8  1  0  0  0  0
  7  9  1  0  0  0  0
  7 10  1  0  0  0  0
 10 11  1  0  0  0  0
 10 12  1  0  0  0  0
 10 13  1  0  0  0  0
M  END
> <VConfSearch Rank>
687

> <Conf_Id>
4

> <Delta U+W>
0.281

> <U+W>
-58.051

> <U>
9.781

> <W>
-67.832

> <W(PB)>
-69.535

> <W(SA)>
1.703

> <Valence>
6.123

> <Coulomb>
3.449

> <VdW>
0.209

> <VdW6>
-3.762

> <VdW12>
3.972

> <Bond>
0.078

> <Angle>
2.428

> <Pdih>
3.616

> <Idih>
0.002

> <Tether>
0.000

$$$$
VeraChem MOL file


 13 12  0  0  0  0  0  0  0  0999 V2000     
   18.7775   17.9316   22.5818 C   0  0  0  0  0  0  0  0  0  0  0  0
   19.0954   17.4090   23.6315 O   0  5  0  0  0  0  0  0  0  0  0  0
   17.6538   18.3280   22.3446 O   0  0  0  0  0  0  0  0  0  0  0  0
   19.8346   18.0659   21.4886 C   0  0  0  0  0  0  0  0  0  0  0  0
   19.3884   17.7012   20.5557 H   0  0  0  0  0  0  0  0  0  0  0  0
   20.6702   17.3952   21.7234 H   0  0  0  0  0  0  0  0  0  0  0  0
   20.3528   19.5122   21.2812 C   0  0  0  0  0  0  0  0  0  0  0  0
   20.9888   19.5418   20.3860 H   0  0  0  0  0  0  0  0  0  0  0  0
   19.5038   20.1828   21.0877 H   0  0  0  0  0  0  0  0  0  0  0  0
   21.1600   20.0291   22.4900 C   0  0  0  0  0  0  0  0  0  0  0  0
   22.0270   19.3850   22.6873 H   0  0  0  0  0  0  0  0  0  0  0  0
   21.5282   21.0462   22.3029 H   0  0  0  0  0  0  0  0  0  0  0  0
   20.5405   20.0551   23.3963 H   0  0  0  0  0  0  0  0  0  0  0  0
  1  2  1  0  0  0  0
  1  3  2  0  0  0  0
  1  4  1  0  0  0  0
  4  5  1  0  0  0  0
  4  6  1  0  0  0  0
  4  7  1  0  0  0  0
  7  8  1  0  0  0  0
  7  9  1  0  0  0  0
  7 10  1  0  0  0  0
 10 11  1  0  0  0  0
 10 12  1  0  0  0  0
 10 13  1  0  0  0  0
M  END
> <VConfSearch Rank>
688

> <Conf_Id>
36

> <Delta U+W>
0.272

> <U+W>
-58.060

> <U>
9.781

> <W>
-67.841

> <W(PB)>
-69.537

> <W(SA)>
1.696

> <Valence>
6.123

> <Coulomb>
3.449

> <VdW>
0.209

> <VdW6>
-3.762

> <VdW12>
3.972

> <Bond>
0.078

> <Angle>
2.428

> <Pdih>
3.616

> <Idih>
0.002

> <Tether>
0.000

$$$$
VeraChem MOL file


 13 12  0  0  0  0  0  0  0  0999 V2000     
   18.4506   19.1987   23.2481 C   0  0  0  0  0  0  0  0  0  0  0  0
   18.8937   18.5166   24.1513 O   0  5  0  0  0  0  0  0  0  0  0  0
   17.3800   19.7682   23.3135 O   0  0  0  0  0  0  0  0  0  0  0  0
   19.2542   19.3668   21.9571 C   0  0  0  0  0  0  0  0  0  0  0  0
   19.4174   20.4410   21.8102 H   0  0  0  0  0  0  0  0  0  0  0  0
   18.6215   19.0229   21.1302 H   0  0  0  0  0  0  0  0  0  0  0  0
   20.6141   18.6217   21.9192 C   0  0  0  0  0  0  0  0  0  0  0  0
   21.2455   18.9655   22.7504 H   0  0  0  0  0  0  0  0  0  0  0  0
   20.4486   17.5457   22.0696 H   0  0  0  0  0  0  0  0  0  0  0  0
   21.3507   18.8486   20.5836 C   0  0  0  0  0  0  0  0  0  0  0  0
   21.5558   19.9154   20.4243 H   0  0  0  0  0  0  0  0  0  0  0  0
   22.3097   18.3142   20.5755 H   0  0  0  0  0  0  0  0  0  0  0  0
   20.7525   18.4842   19.7381 H   0  0  0  0  0  0  0  0  0  0  0  0
  1  2  1  0  0  0  0
  1  3  2  0  0  0  0
  1  4  1  0  0  0  0
  4  5  1  0  0  0  0
  4  6  1  0  0  0  0
  4  7  1  0  0  0  0
  7  8  1  0  0  0  0
  7  9  1  0  0  0  0
  7 10  1  0  0  0  0
 10 11  1  0  0  0  0
 10 12  1  0  0  0  0
 10 13  1  0  0  0  0
M  END
> <VConfSearch Rank>
689

> <Conf_Id>
0

> <Delta U+W>
0.000

> <U+W>
-58.332

> <U>
8.390

> <W>
-66.722

> <W(PB)>
-68.455

> <W(SA)>
1.733

> <Valence>
6.333

> <Coulomb>
1.215

> <VdW>
0.842

> <VdW6>
-3.344

> <VdW12>
4.186

> <Bond>
0.091

> <Angle>
2.713

> <Pdih>
3.529

> <Idih>
0.000

> <Tether>
0.000

$$$$
VeraChem MOL file


 13 12  0  0  0  0  0  0  0  0999 V2000     
   21.3286   20.6345   21.4810 C   0  0  0  0  0  0  0  0  0  0  0  0
   21.6347   21.2978   22.4514 O   0  5  0  0  0  0  0  0  0  0  0  0
   21.3746   21.0518   20.3412 O   0  0  0  0  0  0  0  0  0  0  0  0
   20.8423   19.2070   21.7074 C   0  0  0  0  0  0  0  0  0  0  0  0
   21.3621   18.8044   22.5854 H   0  0  0  0  0  0  0  0  0  0  0  0
   21.1476   18.6016   20.8452 H   0  0  0  0  0  0  0  0  0  0  0  0
   19.3101   19.1151   21.9069 C   0  0  0  0  0  0  0  0  0  0  0  0
   19.0148   19.7328   22.7665 H   0  0  0  0  0  0  0  0  0  0  0  0
   18.8003   19.5298   21.0260 H   0  0  0  0  0  0  0  0  0  0  0  0
   18.8509   17.6607   22.1331 C   0  0  0  0  0  0  0  0  0  0  0  0
   17.7629   17.6159   22.2724 H   0  0  0  0  0  0  0  0  0  0  0  0
   19.1089   17.0290   21.2729 H   0  0  0  0  0  0  0  0  0  0  0  0
   19.3249   17.2337   23.0267 H   0  0  0  0  0  0  0  0  0  0  0  0
  1  2  1  0  0  0  0
  1  3  2  0  0  0  0
  1  4  1  0  0  0  0
  4  5  1  0  0  0  0
  4  6  1  0  0  0  0
  4  7  1  0  0  0  0
  7  8  1  0  0  0  0
  7  9  1  0  0  0  0
  7 10  1  0  0  0  0
 10 11  1  0  0  0  0
 10 12  1  0  0  0  0
 10 13  1  0  0  0  0
M  END
> <VConfSearch Rank>
690

> <Conf_Id>
1

> <Delta U+W>
-1.339

> <U+W>
-59.672

> <U>
7.389

> <W>
-67.061

> <W(PB)>
-68.767

> <W(SA)>
1.707

> <Valence>
5.822

> <Coulomb>
1.255

> <VdW>
0.312

> <VdW6>
-3.061

> <VdW12>
3.372

> <Bond>
0.059

> <Angle>
2.241

> <Pdih>
3.522

> <Idih>
0.000

> <Tether>
0.000

$$$$
VeraChem MOL file


 13 12  0  0  0  0  0  0  0  0999 V2000     
   19.8942   19.6050   20.3383 C   0  0  0  0  0  0  0  0  0  0  0  0
   19.0534   19.0443   19.6639 O   0  5  0  0  0  0  0  0  0  0  0  0
   20.0596   20.8086   20.3377 O   0  0  0  0  0  0  0  0  0  0  0  0
   20.8133   18.7465   21.2037 C   0  0  0  0  0  0  0  0  0  0  0  0
   21.6905   19.3429   21.4836 H   0  0  0  0  0  0  0  0  0  0  0  0
   21.1770   17.9231   20.5776 H   0  0  0  0  0  0  0  0  0  0  0  0
   20.1339   18.1688   22.4718 C   0  0  0  0  0  0  0  0  0  0  0  0
   19.2336   17.6081   22.1835 H   0  0  0  0  0  0  0  0  0  0  0  0
   20.8141   17.4500   22.9487 H   0  0  0  0  0  0  0  0  0  0  0  0
   19.7611   19.2636   23.4927 C   0  0  0  0  0  0  0  0  0  0  0  0
   19.0456   19.9771   23.0627 H   0  0  0  0  0  0  0  0  0  0  0  0
   19.3011   18.8198   24.3852 H   0  0  0  0  0  0  0  0  0  0  0  0
   20.6509   19.8223   23.8114 H   0  0  0  0  0  0  0  0  0  0  0  0
  1  2  1  0  0  0  0
  1  3  2  0  0  0  0
  1  4  1  0  0  0  0
  4  5  1  0  0  0  0
  4  6  1  0  0  0  0
  4  7  1  0  0  0  0
  7  8  1  0  0  0  0
  7  9  1  0  0  0  0
  7 10  1  0  0  0  0
 10 11  1  0  0  0  0
 10 12  1  0  0  0  0
 10 13  1  0  0  0  0
M  END
> <VConfSearch Rank>
691

> <Conf_Id>
4

> <Delta U+W>
0.281

> <U+W>
-58.051

> <U>
9.781

> <W>
-67.832

> <W(PB)>
-69.535

> <W(SA)>
1.703

> <Valence>
6.123

> <Coulomb>
3.449

> <VdW>
0.209

> <VdW6>
-3.762

> <VdW12>
3.972

> <Bond>
0.078

> <Angle>
2.428

> <Pdih>
3.616

> <Idih>
0.002

> <Tether>
0.000

$$$$
VeraChem MOL file


 13 12  0  0  0  0  0  0  0  0999 V2000     
   19.3178   19.7181   23.4142 C   0  0  0  0  0  0  0  0  0  0  0  0
   19.7161   19.1900   24.4332 O   0  5  0  0  0  0  0  0  0  0  0  0
   19.0789   20.9060   23.3249 O   0  0  0  0  0  0  0  0  0  0  0  0
   19.0694   18.8395   22.1907 C   0  0  0  0  0  0  0  0  0  0  0  0
   18.0784   19.0974   21.7986 H   0  0  0  0  0  0  0  0  0  0  0  0
   19.0194   17.7925   22.5142 H   0  0  0  0  0  0  0  0  0  0  0  0
   20.1261   19.0015   21.0680 C   0  0  0  0  0  0  0  0  0  0  0  0
   19.7908   18.4541   20.1764 H   0  0  0  0  0  0  0  0  0  0  0  0
   20.1977   20.0598   20.7803 H   0  0  0  0  0  0  0  0  0  0  0  0
   21.5165   18.4800   21.4861 C   0  0  0  0  0  0  0  0  0  0  0  0
   21.4718   17.4169   21.7567 H   0  0  0  0  0  0  0  0  0  0  0  0
   22.2348   18.5911   20.6635 H   0  0  0  0  0  0  0  0  0  0  0  0
   21.9032   19.0364   22.3502 H   0  0  0  0  0  0  0  0  0  0  0  0
  1  2  1  0  0  0  0
  1  3  2  0  0  0  0
  1  4  1  0  0  0  0
  4  5  1  0  0  0  0
  4  6  1  0  0  0  0
  4  7  1  0  0  0  0
  7  8  1  0  0  0  0
  7  9  1  0  0  0  0
  7 10  1  0  0  0  0
 10 11  1  0  0  0  0
 10 12  1  0  0  0  0
 10 13  1  0  0  0  0
M  END
> <VConfSearch Rank>
692

> <Conf_Id>
36

> <Delta U+W>
0.272

> <U+W>
-58.060

> <U>
9.781

> <W>
-67.841

> <W(PB)>
-69.537

> <W(SA)>
1.696

> <Valence>
6.123

> <Coulomb>
3.449

> <VdW>
0.209

> <VdW6>
-3.762

> <VdW12>
3.972

> <Bond>
0.078

> <Angle>
2.428

> <Pdih>
3.616

> <Idih>
0.002

> <Tether>
0.000

$$$$
VeraChem MOL file


 13 12  0  0  0  0  0  0  0  0999 V2000     
   20.6696   18.2509   23.7094 C   0  0  0  0  0  0  0  0  0  0  0  0
   19.6266   18.3062   24.3310 O   0  5  0  0  0  0  0  0  0  0  0  0
   21.7079   17.8487   24.1943 O   0  0  0  0  0  0  0  0  0  0  0  0
   20.7090   18.7013   22.2478 C   0  0  0  0  0  0  0  0  0  0  0  0
   21.0701   17.8537   21.6533 H   0  0  0  0  0  0  0  0  0  0  0  0
   21.4641   19.4926   22.1690 H   0  0  0  0  0  0  0  0  0  0  0  0
   19.3605   19.2068   21.6718 C   0  0  0  0  0  0  0  0  0  0  0  0
   18.6045   18.4134   21.7544 H   0  0  0  0  0  0  0  0  0  0  0  0
   18.9989   20.0542   22.2708 H   0  0  0  0  0  0  0  0  0  0  0  0
   19.4968   19.6380   20.1976 C   0  0  0  0  0  0  0  0  0  0  0  0
   19.8277   18.7988   19.5717 H   0  0  0  0  0  0  0  0  0  0  0  0
   18.5335   19.9922   19.8078 H   0  0  0  0  0  0  0  0  0  0  0  0
   20.2253   20.4527   20.0922 H   0  0  0  0  0  0  0  0  0  0  0  0
  1  2  1  0  0  0  0
  1  3  2  0  0  0  0
  1  4  1  0  0  0  0
  4  5  1  0  0  0  0
  4  6  1  0  0  0  0
  4  7  1  0  0  0  0
  7  8  1  0  0  0  0
  7  9  1  0  0  0  0
  7 10  1  0  0  0  0
 10 11  1  0  0  0  0
 10 12  1  0  0  0  0
 10 13  1  0  0  0  0
M  END
> <VConfSearch Rank>
693

> <Conf_Id>
0

> <Delta U+W>
0.000

> <U+W>
-58.332

> <U>
8.390

> <W>
-66.722

> <W(PB)>
-68.455

> <W(SA)>
1.733

> <Valence>
6.333

> <Coulomb>
1.215

> <VdW>
0.842

> <VdW6>
-3.344

> <VdW12>
4.186

> <Bond>
0.091

> <Angle>
2.713

> <Pdih>
3.529

> <Idih>
0.000

> <Tether>
0.000

$$$$
VeraChem MOL file


 13 12  0  0  0  0  0  0  0  0999 V2000     
   21.2760   20.5371   21.0823 C   0  0  0  0  0  0  0  0  0  0  0  0
   20.8635   21.1672   20.1293 O   0  5  0  0  0  0  0  0  0  0  0  0
   22.4558   20.4052   21.3396 O   0  0  0  0  0  0  0  0  0  0  0  0
   20.2587   19.8594   21.9940 C   0  0  0  0  0  0  0  0  0  0  0  0
   19.3531   20.4779   22.0142 H   0  0  0  0  0  0  0  0  0  0  0  0
   20.6662   19.8495   23.0123 H   0  0  0  0  0  0  0  0  0  0  0  0
   19.9105   18.4195   21.5456 C   0  0  0  0  0  0  0  0  0  0  0  0
   19.5128   18.4407   20.5213 H   0  0  0  0  0  0  0  0  0  0  0  0
   20.8261   17.8122   21.5197 H   0  0  0  0  0  0  0  0  0  0  0  0
   18.8807   17.7627   22.4866 C   0  0  0  0  0  0  0  0  0  0  0  0
   18.6467   16.7434   22.1528 H   0  0  0  0  0  0  0  0  0  0  0  0
   19.2680   17.7030   23.5123 H   0  0  0  0  0  0  0  0  0  0  0  0
   17.9447   18.3363   22.5062 H   0  0  0  0  0  0  0  0  0  0  0  0
  1  2  1  0  0  0  0
  1  3  2  0  0  0  0
  1  4  1  0  0  0  0
  4  5  1  0  0  0  0
  4  6  1  0  0  0  0
  4  7  1  0  0  0  0
  7  8  1  0  0  0  0
  7  9  1  0  0  0  0
  7 10  1  0  0  0  0
 10 11  1  0  0  0  0
 10 12  1  0  0  0  0
 10 13  1  0  0  0  0
M  END
> <VConfSearch Rank>
694

> <Conf_Id>
1

> <Delta U+W>
-1.339

> <U+W>
-59.672

> <U>
7.389

> <W>
-67.061

> <W(PB)>
-68.767

> <W(SA)>
1.707

> <Valence>
5.822

> <Coulomb>
1.255

> <VdW>
0.312

> <VdW6>
-3.061

> <VdW12>
3.372

> <Bond>
0.059

> <Angle>
2.241

> <Pdih>
3.522

> <Idih>
0.000

> <Tether>
0.000

$$$$
VeraChem MOL file


 13 12  0  0  0  0  0  0  0  0999 V2000     
   19.0273   17.5905   21.6674 C   0  0  0  0  0  0  0  0  0  0  0  0
   19.2111   17.0005   20.6214 O   0  5  0  0  0  0  0  0  0  0  0  0
   18.7482   17.0335   22.7103 O   0  0  0  0  0  0  0  0  0  0  0  0
   19.1170   19.1146   21.6601 C   0  0  0  0  0  0  0  0  0  0  0  0
   18.6244   19.5000   22.5612 H   0  0  0  0  0  0  0  0  0  0  0  0
   18.5341   19.4724   20.8030 H   0  0  0  0  0  0  0  0  0  0  0  0
   20.5634   19.6646   21.5656 C   0  0  0  0  0  0  0  0  0  0  0  0
   21.0612   19.2402   20.6825 H   0  0  0  0  0  0  0  0  0  0  0  0
   20.5257   20.7521   21.4145 H   0  0  0  0  0  0  0  0  0  0  0  0
   21.3945   19.3600   22.8290 C   0  0  0  0  0  0  0  0  0  0  0  0
   21.4907   18.2775   22.9867 H   0  0  0  0  0  0  0  0  0  0  0  0
   22.4049   19.7794   22.7378 H   0  0  0  0  0  0  0  0  0  0  0  0
   20.9257   19.7948   23.7215 H   0  0  0  0  0  0  0  0  0  0  0  0
  1  2  1  0  0  0  0
  1  3  2  0  0  0  0
  1  4  1  0  0  0  0
  4  5  1  0  0  0  0
  4  6  1  0  0  0  0
  4  7  1  0  0  0  0
  7  8  1  0  0  0  0
  7  9  1  0  0  0  0
  7 10  1  0  0  0  0
 10 11  1  0  0  0  0
 10 12  1  0  0  0  0
 10 13  1  0  0  0  0
M  END
> <VConfSearch Rank>
695

> <Conf_Id>
4

> <Delta U+W>
0.281

> <U+W>
-58.051

> <U>
9.781

> <W>
-67.832

> <W(PB)>
-69.535

> <W(SA)>
1.703

> <Valence>
6.123

> <Coulomb>
3.449

> <VdW>
0.209

> <VdW6>
-3.762

> <VdW12>
3.972

> <Bond>
0.078

> <Angle>
2.428

> <Pdih>
3.616

> <Idih>
0.002

> <Tether>
0.000

$$$$
VeraChem MOL file


 13 12  0  0  0  0  0  0  0  0999 V2000     
   19.6060   20.5819   21.4095 C   0  0  0  0  0  0  0  0  0  0  0  0
   18.4657   20.5222   20.9946 O   0  5  0  0  0  0  0  0  0  0  0  0
   20.0477   21.5355   22.0190 O   0  0  0  0  0  0  0  0  0  0  0  0
   20.5457   19.4140   21.1199 C   0  0  0  0  0  0  0  0  0  0  0  0
   21.4808   19.8352   20.7318 H   0  0  0  0  0  0  0  0  0  0  0  0
   20.1138   18.8067   20.3150 H   0  0  0  0  0  0  0  0  0  0  0  0
   20.8529   18.5259   22.3529 C   0  0  0  0  0  0  0  0  0  0  0  0
   21.6452   17.8107   22.0928 H   0  0  0  0  0  0  0  0  0  0  0  0
   21.2461   19.1505   23.1672 H   0  0  0  0  0  0  0  0  0  0  0  0
   19.6140   17.7488   22.8440 C   0  0  0  0  0  0  0  0  0  0  0  0
   19.2177   17.1005   22.0514 H   0  0  0  0  0  0  0  0  0  0  0  0
   19.8700   17.1161   23.7038 H   0  0  0  0  0  0  0  0  0  0  0  0
   18.8153   18.4351   23.1551 H   0  0  0  0  0  0  0  0  0  0  0  0
  1  2  1  0  0  0  0
  1  3  2  0  0  0  0
  1  4  1  0  0  0  0
  4  5  1  0  0  0  0
  4  6  1  0  0  0  0
  4  7  1  0  0  0  0
  7  8  1  0  0  0  0
  7  9  1  0  0  0  0
  7 10  1  0  0  0  0
 10 11  1  0  0  0  0
 10 12  1  0  0  0  0
 10 13  1  0  0  0  0
M  END
> <VConfSearch Rank>
696

> <Conf_Id>
36

> <Delta U+W>
0.272

> <U+W>
-58.060

> <U>
9.781

> <W>
-67.841

> <W(PB)>
-69.537

> <W(SA)>
1.696

> <Valence>
6.123

> <Coulomb>
3.449

> <VdW>
0.209

> <VdW6>
-3.762

> <VdW12>
3.972

> <Bond>
0.078

> <Angle>
2.428

> <Pdih>
3.616

> <Idih>
0.002

> <Tether>
0.000

$$$$
VeraChem MOL file


 13 12  0  0  0  0  0  0  0  0999 V2000     
   20.2670   17.1543   20.7824 C   0  0  0  0  0  0  0  0  0  0  0  0
   20.1005   17.5281   19.6379 O   0  5  0  0  0  0  0  0  0  0  0  0
   20.5011   15.9986   21.0732 O   0  0  0  0  0  0  0  0  0  0  0  0
   20.1840   18.1612   21.9312 C   0  0  0  0  0  0  0  0  0  0  0  0
   21.1369   18.1204   22.4723 H   0  0  0  0  0  0  0  0  0  0  0  0
   19.4086   17.8079   22.6213 H   0  0  0  0  0  0  0  0  0  0  0  0
   19.8834   19.6241   21.5122 C   0  0  0  0  0  0  0  0  0  0  0  0
   20.6600   19.9752   20.8185 H   0  0  0  0  0  0  0  0  0  0  0  0
   18.9296   19.6623   20.9676 H   0  0  0  0  0  0  0  0  0  0  0  0
   19.8185   20.5642   22.7328 C   0  0  0  0  0  0  0  0  0  0  0  0
   20.7720   20.5676   23.2772 H   0  0  0  0  0  0  0  0  0  0  0  0
   19.6051   21.5937   22.4168 H   0  0  0  0  0  0  0  0  0  0  0  0
   19.0277   20.2521   23.4276 H   0  0  0  0  0  0  0  0  0  0  0  0
  1  2  1  0  0  0  0
  1  3  2  0  0  0  0
  1  4  1  0  0  0  0
  4  5  1  0  0  0  0
  4  6  1  0  0  0  0
  4  7  1  0  0  0  0
  7  8  1  0  0  0  0
  7  9  1  0  0  0  0
  7 10  1  0  0  0  0
 10 11  1  0  0  0  0
 10 12  1  0  0  0  0
 10 13  1  0  0  0  0
M  END
> <VConfSearch Rank>
697

> <Conf_Id>
0

> <Delta U+W>
0.000

> <U+W>
-58.332

> <U>
8.390

> <W>
-66.722

> <W(PB)>
-68.455

> <W(SA)>
1.733

> <Valence>
6.333

> <Coulomb>
1.215

> <VdW>
0.842

> <VdW6>
-3.344

> <VdW12>
4.186

> <Bond>
0.091

> <Angle>
2.713

> <Pdih>
3.529

> <Idih>
0.000

> <Tether>
0.000

$$$$
VeraChem MOL file


 13 12  0  0  0  0  0  0  0  0999 V2000     
   20.6858   20.4996   23.1898 C   0  0  0  0  0  0  0  0  0  0  0  0
   21.2292   20.0805   24.1920 O   0  5  0  0  0  0  0  0  0  0  0  0
   20.1545   21.5896   23.1205 O   0  0  0  0  0  0  0  0  0  0  0  0
   20.6525   19.6012   21.9580 C   0  0  0  0  0  0  0  0  0  0  0  0
   21.5677   18.9967   21.9514 H   0  0  0  0  0  0  0  0  0  0  0  0
   20.6814   20.2413   21.0678 H   0  0  0  0  0  0  0  0  0  0  0  0
   19.4073   18.6829   21.9135 C   0  0  0  0  0  0  0  0  0  0  0  0
   19.3835   18.0538   22.8143 H   0  0  0  0  0  0  0  0  0  0  0  0
   18.4971   19.2986   21.9304 H   0  0  0  0  0  0  0  0  0  0  0  0
   19.4033   17.7883   20.6577 C   0  0  0  0  0  0  0  0  0  0  0  0
   18.5137   17.1451   20.6439 H   0  0  0  0  0  0  0  0  0  0  0  0
   19.3968   18.3955   19.7429 H   0  0  0  0  0  0  0  0  0  0  0  0
   20.2900   17.1412   20.6337 H   0  0  0  0  0  0  0  0  0  0  0  0
  1  2  1  0  0  0  0
  1  3  2  0  0  0  0
  1  4  1  0  0  0  0
  4  5  1  0  0  0  0
  4  6  1  0  0  0  0
  4  7  1  0  0  0  0
  7  8  1  0  0  0  0
  7  9  1  0  0  0  0
  7 10  1  0  0  0  0
 10 11  1  0  0  0  0
 10 12  1  0  0  0  0
 10 13  1  0  0  0  0
M  END
> <VConfSearch Rank>
698

> <Conf_Id>
1

> <Delta U+W>
-1.339

> <U+W>
-59.672

> <U>
7.389

> <W>
-67.061

> <W(PB)>
-68.767

> <W(SA)>
1.707

> <Valence>
5.822

> <Coulomb>
1.255

> <VdW>
0.312

> <VdW6>
-3.061

> <VdW12>
3.372

> <Bond>
0.059

> <Angle>
2.241

> <Pdih>
3.522

> <Idih>
0.000

> <Tether>
0.000

$$$$
VeraChem MOL file


 13 12  0  0  0  0  0  0  0  0999 V2000     
   20.9459   20.5563   21.8799 C   0  0  0  0  0  0  0  0  0  0  0  0
   20.8960   21.1038   20.7965 O   0  5  0  0  0  0  0  0  0  0  0  0
   20.8388   21.1488   22.9351 O   0  0  0  0  0  0  0  0  0  0  0  0
   21.1921   19.0500   21.9151 C   0  0  0  0  0  0  0  0  0  0  0  0
   21.5248   18.7717   22.9227 H   0  0  0  0  0  0  0  0  0  0  0  0
   22.0271   18.8392   21.2364 H   0  0  0  0  0  0  0  0  0  0  0  0
   19.9650   18.1966   21.5035 C   0  0  0  0  0  0  0  0  0  0  0  0
   19.6145   18.5116   20.5106 H   0  0  0  0  0  0  0  0  0  0  0  0
   20.2721   17.1459   21.4111 H   0  0  0  0  0  0  0  0  0  0  0  0
   18.8088   18.2962   22.5200 C   0  0  0  0  0  0  0  0  0  0  0  0
   18.4460   19.3292   22.6050 H   0  0  0  0  0  0  0  0  0  0  0  0
   17.9653   17.6662   22.2093 H   0  0  0  0  0  0  0  0  0  0  0  0
   19.1319   17.9647   23.5155 H   0  0  0  0  0  0  0  0  0  0  0  0
  1  2  1  0  0  0  0
  1  3  2  0  0  0  0
  1  4  1  0  0  0  0
  4  5  1  0  0  0  0
  4  6  1  0  0  0  0
  4  7  1  0  0  0  0
  7  8  1  0  0  0  0
  7  9  1  0  0  0  0
  7 10  1  0  0  0  0
 10 11  1  0  0  0  0
 10 12  1  0  0  0  0
 10 13  1  0  0  0  0
M  END
> <VConfSearch Rank>
699

> <Conf_Id>
4

> <Delta U+W>
0.281

> <U+W>
-58.051

> <U>
9.781

> <W>
-67.832

> <W(PB)>
-69.535

> <W(SA)>
1.703

> <Valence>
6.123

> <Coulomb>
3.449

> <VdW>
0.209

> <VdW6>
-3.762

> <VdW12>
3.972

> <Bond>
0.078

> <Angle>
2.428

> <Pdih>
3.616

> <Idih>
0.002

> <Tether>
0.000

$$$$
VeraChem MOL file


 13 12  0  0  0  0  0  0  0  0999 V2000     
   19.8924   17.2021   21.7911 C   0  0  0  0  0  0  0  0  0  0  0  0
   19.8672   16.6652   22.8806 O   0  5  0  0  0  0  0  0  0  0  0  0
   19.1932   16.8585   20.8589 O   0  0  0  0  0  0  0  0  0  0  0  0
   20.8791   18.3456   21.5683 C   0  0  0  0  0  0  0  0  0  0  0  0
   21.4053   18.1448   20.6275 H   0  0  0  0  0  0  0  0  0  0  0  0
   21.6330   18.3195   22.3647 H   0  0  0  0  0  0  0  0  0  0  0  0
   20.2210   19.7477   21.5019 C   0  0  0  0  0  0  0  0  0  0  0  0
   20.9744   20.4845   21.1913 H   0  0  0  0  0  0  0  0  0  0  0  0
   19.4393   19.7508   20.7294 H   0  0  0  0  0  0  0  0  0  0  0  0
   19.6190   20.1820   22.8542 C   0  0  0  0  0  0  0  0  0  0  0  0
   20.3889   20.2072   23.6365 H   0  0  0  0  0  0  0  0  0  0  0  0
   19.1795   21.1851   22.7777 H   0  0  0  0  0  0  0  0  0  0  0  0
   18.8288   19.4902   23.1748 H   0  0  0  0  0  0  0  0  0  0  0  0
  1  2  1  0  0  0  0
  1  3  2  0  0  0  0
  1  4  1  0  0  0  0
  4  5  1  0  0  0  0
  4  6  1  0  0  0  0
  4  7  1  0  0  0  0
  7  8  1  0  0  0  0
  7  9  1  0  0  0  0
  7 10  1  0  0  0  0
 10 11  1  0  0  0  0
 10 12  1  0  0  0  0
 10 13  1  0  0  0  0
M  END
> <VConfSearch Rank>
700

> <Conf_Id>
36

> <Delta U+W>
0.272

> <U+W>
-58.060

> <U>
9.781

> <W>
-67.841

> <W(PB)>
-69.537

> <W(SA)>
1.696

> <Valence>
6.123

> <Coulomb>
3.449

> <VdW>
0.209

> <VdW6>
-3.762

> <VdW12>
3.972

> <Bond>
0.078

> <Angle>
2.428

> <Pdih>
3.616

> <Idih>
0.002

> <Tether>
0.000

$$$$
VeraChem MOL file


 13 12  0  0  0  0  0  0  0  0999 V2000     
   21.4209   17.4297   21.4680 C   0  0  0  0  0  0  0  0  0  0  0  0
   22.3944   17.8758   22.0431 O   0  5  0  0  0  0  0  0  0  0  0  0
   21.4235   16.3578   20.8974 O   0  0  0  0  0  0  0  0  0  0  0  0
   20.1181   18.2315   21.4438 C   0  0  0  0  0  0  0  0  0  0  0  0
   19.3358   17.5987   21.8797 H   0  0  0  0  0  0  0  0  0  0  0  0
   19.8514   18.3917   20.3924 H   0  0  0  0  0  0  0  0  0  0  0  0
   20.1620   19.5933   22.1851 C   0  0  0  0  0  0  0  0  0  0  0  0
   20.4322   19.4307   23.2379 H   0  0  0  0  0  0  0  0  0  0  0  0
   20.9486   20.2246   21.7488 H   0  0  0  0  0  0  0  0  0  0  0  0
   18.8084   20.3279   22.1075 C   0  0  0  0  0  0  0  0  0  0  0  0
   18.0099   19.7297   22.5658 H   0  0  0  0  0  0  0  0  0  0  0  0
   18.8589   21.2882   22.6370 H   0  0  0  0  0  0  0  0  0  0  0  0
   18.5303   20.5300   21.0647 H   0  0  0  0  0  0  0  0  0  0  0  0
  1  2  1  0  0  0  0
  1  3  2  0  0  0  0
  1  4  1  0  0  0  0
  4  5  1  0  0  0  0
  4  6  1  0  0  0  0
  4  7  1  0  0  0  0
  7  8  1  0  0  0  0
  7  9  1  0  0  0  0
  7 10  1  0  0  0  0
 10 11  1  0  0  0  0
 10 12  1  0  0  0  0
 10 13  1  0  0  0  0
M  END
> <VConfSearch Rank>
701

> <Conf_Id>
0

> <Delta U+W>
0.000

> <U+W>
-58.332

> <U>
8.390

> <W>
-66.722

> <W(PB)>
-68.455

> <W(SA)>
1.733

> <Valence>
6.333

> <Coulomb>
1.215

> <VdW>
0.842

> <VdW6>
-3.344

> <VdW12>
4.186

> <Bond>
0.091

> <Angle>
2.713

> <Pdih>
3.529

> <Idih>
0.000

> <Tether>
0.000

$$$$
VeraChem MOL file


 13 12  0  0  0  0  0  0  0  0999 V2000     
   21.7396   17.9499   22.2900 C   0  0  0  0  0  0  0  0  0  0  0  0
   22.1850   17.2558   21.3982 O   0  5  0  0  0  0  0  0  0  0  0  0
   21.9458   17.7419   23.4688 O   0  0  0  0  0  0  0  0  0  0  0  0
   20.8588   19.1353   21.9099 C   0  0  0  0  0  0  0  0  0  0  0  0
   21.2087   19.5256   20.9465 H   0  0  0  0  0  0  0  0  0  0  0  0
   21.0115   19.9265   22.6540 H   0  0  0  0  0  0  0  0  0  0  0  0
   19.3574   18.7689   21.8226 C   0  0  0  0  0  0  0  0  0  0  0  0
   19.2179   17.9690   21.0819 H   0  0  0  0  0  0  0  0  0  0  0  0
   19.0207   18.3701   22.7898 H   0  0  0  0  0  0  0  0  0  0  0  0
   18.4948   19.9872   21.4368 C   0  0  0  0  0  0  0  0  0  0  0  0
   17.4346   19.7080   21.3800 H   0  0  0  0  0  0  0  0  0  0  0  0
   18.5946   20.7900   22.1792 H   0  0  0  0  0  0  0  0  0  0  0  0
   18.7933   20.3858   20.4583 H   0  0  0  0  0  0  0  0  0  0  0  0
  1  2  1  0  0  0  0
  1  3  2  0  0  0  0
  1  4  1  0  0  0  0
  4  5  1  0  0  0  0
  4  6  1  0  0  0  0
  4  7  1  0  0  0  0
  7  8  1  0  0  0  0
  7  9  1  0  0  0  0
  7 10  1  0  0  0  0
 10 11  1  0  0  0  0
 10 12  1  0  0  0  0
 10 13  1  0  0  0  0
M  END
> <VConfSearch Rank>
702

> <Conf_Id>
1

> <Delta U+W>
-1.339

> <U+W>
-59.672

> <U>
7.389

> <W>
-67.061

> <W(PB)>
-68.767

> <W(SA)>
1.707

> <Valence>
5.822

> <Coulomb>
1.255

> <VdW>
0.312

> <VdW6>
-3.061

> <VdW12>
3.372

> <Bond>
0.059

> <Angle>
2.241

> <Pdih>
3.522

> <Idih>
0.000

> <Tether>
0.000

$$$$
VeraChem MOL file


 13 12  0  0  0  0  0  0  0  0999 V2000     
   18.5939   18.0396   21.9316 C   0  0  0  0  0  0  0  0  0  0  0  0
   18.5488   17.1420   21.1141 O   0  5  0  0  0  0  0  0  0  0  0  0
   18.1222   17.9529   23.0478 O   0  0  0  0  0  0  0  0  0  0  0  0
   19.2464   19.3569   21.5197 C   0  0  0  0  0  0  0  0  0  0  0  0
   18.9293   20.1400   22.2193 H   0  0  0  0  0  0  0  0  0  0  0  0
   18.8432   19.6282   20.5368 H   0  0  0  0  0  0  0  0  0  0  0  0
   20.7939   19.3025   21.4451 C   0  0  0  0  0  0  0  0  0  0  0  0
   21.1013   18.4882   20.7740 H   0  0  0  0  0  0  0  0  0  0  0  0
   21.1658   20.2355   21.0002 H   0  0  0  0  0  0  0  0  0  0  0  0
   21.4454   19.1100   22.8302 C   0  0  0  0  0  0  0  0  0  0  0  0
   21.1295   18.1626   23.2867 H   0  0  0  0  0  0  0  0  0  0  0  0
   22.5397   19.0956   22.7444 H   0  0  0  0  0  0  0  0  0  0  0  0
   21.1688   19.9259   23.5108 H   0  0  0  0  0  0  0  0  0  0  0  0
  1  2  1  0  0  0  0
  1  3  2  0  0  0  0
  1  4  1  0  0  0  0
  4  5  1  0  0  0  0
  4  6  1  0  0  0  0
  4  7  1  0  0  0  0
  7  8  1  0  0  0  0
  7  9  1  0  0  0  0
  7 10  1  0  0  0  0
 10 11  1  0  0  0  0
 10 12  1  0  0  0  0
 10 13  1  0  0  0  0
M  END
> <VConfSearch Rank>
703

> <Conf_Id>
4

> <Delta U+W>
0.281

> <U+W>
-58.051

> <U>
9.781

> <W>
-67.832

> <W(PB)>
-69.535

> <W(SA)>
1.703

> <Valence>
6.123

> <Coulomb>
3.449

> <VdW>
0.209

> <VdW6>
-3.762

> <VdW12>
3.972

> <Bond>
0.078

> <Angle>
2.428

> <Pdih>
3.616

> <Idih>
0.002

> <Tether>
0.000

$$$$
VeraChem MOL file


 13 12  0  0  0  0  0  0  0  0999 V2000     
   19.3220   20.5722   21.9262 C   0  0  0  0  0  0  0  0  0  0  0  0
   18.8643   20.8483   23.0172 O   0  5  0  0  0  0  0  0  0  0  0  0
   19.8358   21.3900   21.1891 O   0  0  0  0  0  0  0  0  0  0  0  0
   19.2150   19.1296   21.4383 C   0  0  0  0  0  0  0  0  0  0  0  0
   18.8243   19.1589   20.4142 H   0  0  0  0  0  0  0  0  0  0  0  0
   18.4674   18.6070   22.0477 H   0  0  0  0  0  0  0  0  0  0  0  0
   20.5563   18.3524   21.4564 C   0  0  0  0  0  0  0  0  0  0  0  0
   20.4188   17.3856   20.9533 H   0  0  0  0  0  0  0  0  0  0  0  0
   21.3094   18.9053   20.8775 H   0  0  0  0  0  0  0  0  0  0  0  0
   21.0767   18.1062   22.8876 C   0  0  0  0  0  0  0  0  0  0  0  0
   20.3477   17.5351   23.4774 H   0  0  0  0  0  0  0  0  0  0  0  0
   22.0156   17.5378   22.8654 H   0  0  0  0  0  0  0  0  0  0  0  0
   21.2679   19.0548   23.4067 H   0  0  0  0  0  0  0  0  0  0  0  0
  1  2  1  0  0  0  0
  1  3  2  0  0  0  0
  1  4  1  0  0  0  0
  4  5  1  0  0  0  0
  4  6  1  0  0  0  0
  4  7  1  0  0  0  0
  7  8  1  0  0  0  0
  7  9  1  0  0  0  0
  7 10  1  0  0  0  0
 10 11  1  0  0  0  0
 10 12  1  0  0  0  0
 10 13  1  0  0  0  0
M  END
> <VConfSearch Rank>
704

> <Conf_Id>
36

> <Delta U+W>
0.272

> <U+W>
-58.060

> <U>
9.781

> <W>
-67.841

> <W(PB)>
-69.537

> <W(SA)>
1.696

> <Valence>
6.123

> <Coulomb>
3.449

> <VdW>
0.209

> <VdW6>
-3.762

> <VdW12>
3.972

> <Bond>
0.078

> <Angle>
2.428

> <Pdih>
3.616

> <Idih>
0.002

> <Tether>
0.000

$$$$
VeraChem MOL file


 13 12  0  0  0  0  0  0  0  0999 V2000     
   18.2840   19.9617   21.0454 C   0  0  0  0  0  0  0  0  0  0  0  0
   18.0054   20.6876   21.9797 O   0  5  0  0  0  0  0  0  0  0  0  0
   17.6336   19.9237   20.0205 O   0  0  0  0  0  0  0  0  0  0  0  0
   19.5033   19.0418   21.1341 C   0  0  0  0  0  0  0  0  0  0  0  0
   20.1603   19.2864   20.2910 H   0  0  0  0  0  0  0  0  0  0  0  0
   19.1512   18.0151   20.9784 H   0  0  0  0  0  0  0  0  0  0  0  0
   20.3028   19.1243   22.4607 C   0  0  0  0  0  0  0  0  0  0  0  0
   20.6522   20.1546   22.6163 H   0  0  0  0  0  0  0  0  0  0  0  0
   19.6418   18.8818   23.3045 H   0  0  0  0  0  0  0  0  0  0  0  0
   21.5100   18.1649   22.4587 C   0  0  0  0  0  0  0  0  0  0  0  0
   22.2027   18.4067   21.6418 H   0  0  0  0  0  0  0  0  0  0  0  0
   22.0629   18.2374   23.4044 H   0  0  0  0  0  0  0  0  0  0  0  0
   21.1842   17.1237   22.3355 H   0  0  0  0  0  0  0  0  0  0  0  0
  1  2  1  0  0  0  0
  1  3  2  0  0  0  0
  1  4  1  0  0  0  0
  4  5  1  0  0  0  0
  4  6  1  0  0  0  0
  4  7  1  0  0  0  0
  7  8  1  0  0  0  0
  7  9  1  0  0  0  0
  7 10  1  0  0  0  0
 10 11  1  0  0  0  0
 10 12  1  0  0  0  0
 10 13  1  0  0  0  0
M  END
> <VConfSearch Rank>
705

> <Conf_Id>
0

> <Delta U+W>
0.000

> <U+W>
-58.332

> <U>
8.390

> <W>
-66.722

> <W(PB)>
-68.455

> <W(SA)>
1.733

> <Valence>
6.333

> <Coulomb>
1.215

> <VdW>
0.842

> <VdW6>
-3.344

> <VdW12>
4.186

> <Bond>
0.091

> <Angle>
2.713

> <Pdih>
3.529

> <Idih>
0.000

> <Tether>
0.000

$$$$
VeraChem MOL file


 13 12  0  0  0  0  0  0  0  0999 V2000     
   19.9454   19.0559   23.9434 C   0  0  0  0  0  0  0  0  0  0  0  0
   20.6058   19.9199   24.4844 O   0  5  0  0  0  0  0  0  0  0  0  0
   19.6424   18.0087   24.4791 O   0  0  0  0  0  0  0  0  0  0  0  0
   19.4880   19.2904   22.5077 C   0  0  0  0  0  0  0  0  0  0  0  0
   19.3163   20.3656   22.3754 H   0  0  0  0  0  0  0  0  0  0  0  0
   18.5218   18.7895   22.3711 H   0  0  0  0  0  0  0  0  0  0  0  0
   20.5054   18.7805   21.4585 C   0  0  0  0  0  0  0  0  0  0  0  0
   21.4715   19.2815   21.6112 H   0  0  0  0  0  0  0  0  0  0  0  0
   20.6768   17.7051   21.6068 H   0  0  0  0  0  0  0  0  0  0  0  0
   20.0141   19.0322   20.0189 C   0  0  0  0  0  0  0  0  0  0  0  0
   20.7480   18.6642   19.2900 H   0  0  0  0  0  0  0  0  0  0  0  0
   19.0631   18.5160   19.8325 H   0  0  0  0  0  0  0  0  0  0  0  0
   19.8640   20.1045   19.8369 H   0  0  0  0  0  0  0  0  0  0  0  0
  1  2  1  0  0  0  0
  1  3  2  0  0  0  0
  1  4  1  0  0  0  0
  4  5  1  0  0  0  0
  4  6  1  0  0  0  0
  4  7  1  0  0  0  0
  7  8  1  0  0  0  0
  7  9  1  0  0  0  0
  7 10  1  0  0  0  0
 10 11  1  0  0  0  0
 10 12  1  0  0  0  0
 10 13  1  0  0  0  0
M  END
> <VConfSearch Rank>
706

> <Conf_Id>
1

> <Delta U+W>
-1.339

> <U+W>
-59.672

> <U>
7.389

> <W>
-67.061

> <W(PB)>
-68.767

> <W(SA)>
1.707

> <Valence>
5.822

> <Coulomb>
1.255

> <VdW>
0.312

> <VdW6>
-3.061

> <VdW12>
3.372

> <Bond>
0.059

> <Angle>
2.241

> <Pdih>
3.522

> <Idih>
0.000

> <Tether>
0.000

$$$$
VeraChem MOL file


 13 12  0  0  0  0  0  0  0  0999 V2000     
   21.8575   19.0350   21.5436 C   0  0  0  0  0  0  0  0  0  0  0  0
   22.5461   19.8065   22.1813 O   0  5  0  0  0  0  0  0  0  0  0  0
   22.2314   17.9316   21.1989 O   0  0  0  0  0  0  0  0  0  0  0  0
   20.4627   19.4925   21.1239 C   0  0  0  0  0  0  0  0  0  0  0  0
   20.1098   18.8446   20.3121 H   0  0  0  0  0  0  0  0  0  0  0  0
   20.5618   20.5006   20.7040 H   0  0  0  0  0  0  0  0  0  0  0  0
   19.4279   19.5140   22.2780 C   0  0  0  0  0  0  0  0  0  0  0  0
   19.8096   20.1323   23.1026 H   0  0  0  0  0  0  0  0  0  0  0  0
   18.5049   19.9939   21.9249 H   0  0  0  0  0  0  0  0  0  0  0  0
   19.0938   18.1005   22.7979 C   0  0  0  0  0  0  0  0  0  0  0  0
   19.9880   17.6066   23.2006 H   0  0  0  0  0  0  0  0  0  0  0  0
   18.3452   18.1500   23.5993 H   0  0  0  0  0  0  0  0  0  0  0  0
   18.6894   17.4720   21.9937 H   0  0  0  0  0  0  0  0  0  0  0  0
  1  2  1  0  0  0  0
  1  3  2  0  0  0  0
  1  4  1  0  0  0  0
  4  5  1  0  0  0  0
  4  6  1  0  0  0  0
  4  7  1  0  0  0  0
  7  8  1  0  0  0  0
  7  9  1  0  0  0  0
  7 10  1  0  0  0  0
 10 11  1  0  0  0  0
 10 12  1  0  0  0  0
 10 13  1  0  0  0  0
M  END
> <VConfSearch Rank>
707

> <Conf_Id>
4

> <Delta U+W>
0.281

> <U+W>
-58.051

> <U>
9.781

> <W>
-67.832

> <W(PB)>
-69.535

> <W(SA)>
1.703

> <Valence>
6.123

> <Coulomb>
3.449

> <VdW>
0.209

> <VdW6>
-3.762

> <VdW12>
3.972

> <Bond>
0.078

> <Angle>
2.428

> <Pdih>
3.616

> <Idih>
0.002

> <Tether>
0.000

$$$$
VeraChem MOL file


 13 12  0  0  0  0  0  0  0  0999 V2000     
   18.4992   18.5891   22.6675 C   0  0  0  0  0  0  0  0  0  0  0  0
   18.1244   19.5068   23.3698 O   0  5  0  0  0  0  0  0  0  0  0  0
   17.7580   17.9529   21.9449 O   0  0  0  0  0  0  0  0  0  0  0  0
   19.9716   18.1891   22.7205 C   0  0  0  0  0  0  0  0  0  0  0  0
   20.0104   17.0998   22.8398 H   0  0  0  0  0  0  0  0  0  0  0  0
   20.4212   18.6227   23.6222 H   0  0  0  0  0  0  0  0  0  0  0  0
   20.7863   18.6000   21.4672 C   0  0  0  0  0  0  0  0  0  0  0  0
   21.7849   18.1453   21.5222 H   0  0  0  0  0  0  0  0  0  0  0  0
   20.3042   18.1952   20.5663 H   0  0  0  0  0  0  0  0  0  0  0  0
   20.9358   20.1297   21.3356 C   0  0  0  0  0  0  0  0  0  0  0  0
   21.4360   20.5525   22.2168 H   0  0  0  0  0  0  0  0  0  0  0  0
   21.5332   20.3853   20.4507 H   0  0  0  0  0  0  0  0  0  0  0  0
   19.9559   20.6147   21.2336 H   0  0  0  0  0  0  0  0  0  0  0  0
  1  2  1  0  0  0  0
  1  3  2  0  0  0  0
  1  4  1  0  0  0  0
  4  5  1  0  0  0  0
  4  6  1  0  0  0  0
  4  7  1  0  0  0  0
  7  8  1  0  0  0  0
  7  9  1  0  0  0  0
  7 10  1  0  0  0  0
 10 11  1  0  0  0  0
 10 12  1  0  0  0  0
 10 13  1  0  0  0  0
M  END
> <VConfSearch Rank>
708

> <Conf_Id>
36

> <Delta U+W>
0.272

> <U+W>
-58.060

> <U>
9.781

> <W>
-67.841

> <W(PB)>
-69.537

> <W(SA)>
1.696

> <Valence>
6.123

> <Coulomb>
3.449

> <VdW>
0.209

> <VdW6>
-3.762

> <VdW12>
3.972

> <Bond>
0.078

> <Angle>
2.428

> <Pdih>
3.616

> <Idih>
0.002

> <Tether>
0.000

$$$$
VeraChem MOL file


 13 12  0  0  0  0  0  0  0  0999 V2000     
   21.7479   19.9963   22.5824 C   0  0  0  0  0  0  0  0  0  0  0  0
   21.6543   19.7162   23.7614 O   0  5  0  0  0  0  0  0  0  0  0  0
   22.6499   20.6742   22.1332 O   0  0  0  0  0  0  0  0  0  0  0  0
   20.6970   19.4873   21.5938 C   0  0  0  0  0  0  0  0  0  0  0  0
   21.2232   18.9085   20.8253 H   0  0  0  0  0  0  0  0  0  0  0  0
   20.2647   20.3630   21.0952 H   0  0  0  0  0  0  0  0  0  0  0  0
   19.5648   18.6263   22.2124 C   0  0  0  0  0  0  0  0  0  0  0  0
   20.0004   17.7508   22.7141 H   0  0  0  0  0  0  0  0  0  0  0  0
   19.0407   19.2070   22.9844 H   0  0  0  0  0  0  0  0  0  0  0  0
   18.5557   18.1596   21.1439 C   0  0  0  0  0  0  0  0  0  0  0  0
   19.0501   17.5500   20.3762 H   0  0  0  0  0  0  0  0  0  0  0  0
   17.7628   17.5525   21.6001 H   0  0  0  0  0  0  0  0  0  0  0  0
   18.0828   19.0179   20.6486 H   0  0  0  0  0  0  0  0  0  0  0  0
  1  2  1  0  0  0  0
  1  3  2  0  0  0  0
  1  4  1  0  0  0  0
  4  5  1  0  0  0  0
  4  6  1  0  0  0  0
  4  7  1  0  0  0  0
  7  8  1  0  0  0  0
  7  9  1  0  0  0  0
  7 10  1  0  0  0  0
 10 11  1  0  0  0  0
 10 12  1  0  0  0  0
 10 13  1  0  0  0  0
M  END
> <VConfSearch Rank>
709

> <Conf_Id>
0

> <Delta U+W>
0.000

> <U+W>
-58.332

> <U>
8.390

> <W>
-66.722

> <W(PB)>
-68.455

> <W(SA)>
1.733

> <Valence>
6.333

> <Coulomb>
1.215

> <VdW>
0.842

> <VdW6>
-3.344

> <VdW12>
4.186

> <Bond>
0.091

> <Angle>
2.713

> <Pdih>
3.529

> <Idih>
0.000

> <Tether>
0.000

$$$$
VeraChem MOL file


 13 12  0  0  0  0  0  0  0  0999 V2000     
   21.5867   19.1049   23.2121 C   0  0  0  0  0  0  0  0  0  0  0  0
   21.2767   19.1548   24.3854 O   0  5  0  0  0  0  0  0  0  0  0  0
   22.6486   19.5072   22.7809 O   0  0  0  0  0  0  0  0  0  0  0  0
   20.5811   18.5229   22.2244 C   0  0  0  0  0  0  0  0  0  0  0  0
   20.0081   17.7428   22.7403 H   0  0  0  0  0  0  0  0  0  0  0  0
   21.1395   18.0334   21.4172 H   0  0  0  0  0  0  0  0  0  0  0  0
   19.6230   19.5885   21.6392 C   0  0  0  0  0  0  0  0  0  0  0  0
   19.0767   20.0788   22.4571 H   0  0  0  0  0  0  0  0  0  0  0  0
   20.2082   20.3693   21.1336 H   0  0  0  0  0  0  0  0  0  0  0  0
   18.6199   18.9689   20.6456 C   0  0  0  0  0  0  0  0  0  0  0  0
   17.9498   19.7391   20.2418 H   0  0  0  0  0  0  0  0  0  0  0  0
   19.1422   18.4981   19.8024 H   0  0  0  0  0  0  0  0  0  0  0  0
   18.0020   18.2053   21.1361 H   0  0  0  0  0  0  0  0  0  0  0  0
  1  2  1  0  0  0  0
  1  3  2  0  0  0  0
  1  4  1  0  0  0  0
  4  5  1  0  0  0  0
  4  6  1  0  0  0  0
  4  7  1  0  0  0  0
  7  8  1  0  0  0  0
  7  9  1  0  0  0  0
  7 10  1  0  0  0  0
 10 11  1  0  0  0  0
 10 12  1  0  0  0  0
 10 13  1  0  0  0  0
M  END
> <VConfSearch Rank>
710

> <Conf_Id>
1

> <Delta U+W>
-1.339

> <U+W>
-59.672

> <U>
7.389

> <W>
-67.061

> <W(PB)>
-68.767

> <W(SA)>
1.707

> <Valence>
5.822

> <Coulomb>
1.255

> <VdW>
0.312

> <VdW6>
-3.061

> <VdW12>
3.372

> <Bond>
0.059

> <Angle>
2.241

> <Pdih>
3.522

> <Idih>
0.000

> <Tether>
0.000

$$$$
VeraChem MOL file


 13 12  0  0  0  0  0  0  0  0999 V2000     
   21.6050   19.6863   22.7074 C   0  0  0  0  0  0  0  0  0  0  0  0
   22.5822   18.9655   22.7461 O   0  5  0  0  0  0  0  0  0  0  0  0
   21.6556   20.8687   22.4332 O   0  0  0  0  0  0  0  0  0  0  0  0
   20.2483   19.0798   23.0571 C   0  0  0  0  0  0  0  0  0  0  0  0
   19.5489   19.8928   23.2878 H   0  0  0  0  0  0  0  0  0  0  0  0
   20.3768   18.5013   23.9797 H   0  0  0  0  0  0  0  0  0  0  0  0
   19.6584   18.1653   21.9531 C   0  0  0  0  0  0  0  0  0  0  0  0
   20.3837   17.3791   21.7004 H   0  0  0  0  0  0  0  0  0  0  0  0
   18.7664   17.6576   22.3448 H   0  0  0  0  0  0  0  0  0  0  0  0
   19.2744   18.9483   20.6806 C   0  0  0  0  0  0  0  0  0  0  0  0
   20.1531   19.4339   20.2357 H   0  0  0  0  0  0  0  0  0  0  0  0
   18.8426   18.2758   19.9280 H   0  0  0  0  0  0  0  0  0  0  0  0
   18.5327   19.7256   20.9070 H   0  0  0  0  0  0  0  0  0  0  0  0
  1  2  1  0  0  0  0
  1  3  2  0  0  0  0
  1  4  1  0  0  0  0
  4  5  1  0  0  0  0
  4  6  1  0  0  0  0
  4  7  1  0  0  0  0
  7  8  1  0  0  0  0
  7  9  1  0  0  0  0
  7 10  1  0  0  0  0
 10 11  1  0  0  0  0
 10 12  1  0  0  0  0
 10 13  1  0  0  0  0
M  END
> <VConfSearch Rank>
711

> <Conf_Id>
4

> <Delta U+W>
0.281

> <U+W>
-58.051

> <U>
9.781

> <W>
-67.832

> <W(PB)>
-69.535

> <W(SA)>
1.703

> <Valence>
6.123

> <Coulomb>
3.449

> <VdW>
0.209

> <VdW6>
-3.762

> <VdW12>
3.972

> <Bond>
0.078

> <Angle>
2.428

> <Pdih>
3.616

> <Idih>
0.002

> <Tether>
0.000

$$$$
VeraChem MOL file


 13 12  0  0  0  0  0  0  0  0999 V2000     
   21.7236   18.1751   21.9632 C   0  0  0  0  0  0  0  0  0  0  0  0
   21.9575   17.6826   23.0489 O   0  5  0  0  0  0  0  0  0  0  0  0
   22.0410   17.6576   20.9108 O   0  0  0  0  0  0  0  0  0  0  0  0
   21.0262   19.5324   21.9171 C   0  0  0  0  0  0  0  0  0  0  0  0
   21.5930   20.1679   21.2262 H   0  0  0  0  0  0  0  0  0  0  0  0
   21.0982   19.9983   22.9075 H   0  0  0  0  0  0  0  0  0  0  0  0
   19.5453   19.4699   21.4629 C   0  0  0  0  0  0  0  0  0  0  0  0
   19.1711   20.4919   21.3136 H   0  0  0  0  0  0  0  0  0  0  0  0
   19.4803   18.9645   20.4891 H   0  0  0  0  0  0  0  0  0  0  0  0
   18.6440   18.7478   22.4858 C   0  0  0  0  0  0  0  0  0  0  0  0
   18.6769   19.2503   23.4614 H   0  0  0  0  0  0  0  0  0  0  0  0
   17.6010   18.7384   22.1436 H   0  0  0  0  0  0  0  0  0  0  0  0
   18.9630   17.7065   22.6270 H   0  0  0  0  0  0  0  0  0  0  0  0
  1  2  1  0  0  0  0
  1  3  2  0  0  0  0
  1  4  1  0  0  0  0
  4  5  1  0  0  0  0
  4  6  1  0  0  0  0
  4  7  1  0  0  0  0
  7  8  1  0  0  0  0
  7  9  1  0  0  0  0
  7 10  1  0  0  0  0
 10 11  1  0  0  0  0
 10 12  1  0  0  0  0
 10 13  1  0  0  0  0
M  END
> <VConfSearch Rank>
712

> <Conf_Id>
36

> <Delta U+W>
0.272

> <U+W>
-58.060

> <U>
9.781

> <W>
-67.841

> <W(PB)>
-69.537

> <W(SA)>
1.696

> <Valence>
6.123

> <Coulomb>
3.449

> <VdW>
0.209

> <VdW6>
-3.762

> <VdW12>
3.972

> <Bond>
0.078

> <Angle>
2.428

> <Pdih>
3.616

> <Idih>
0.002

> <Tether>
0.000

$$$$
VeraChem MOL file


 13 12  0  0  0  0  0  0  0  0999 V2000     
   22.1431   18.8295   21.6724 C   0  0  0  0  0  0  0  0  0  0  0  0
   22.3042   19.1577   20.5132 O   0  5  0  0  0  0  0  0  0  0  0  0
   23.0601   18.5184   22.4052 O   0  0  0  0  0  0  0  0  0  0  0  0
   20.7329   18.7966   22.2647 C   0  0  0  0  0  0  0  0  0  0  0  0
   20.7280   19.4616   23.1365 H   0  0  0  0  0  0  0  0  0  0  0  0
   20.5571   17.7801   22.6363 H   0  0  0  0  0  0  0  0  0  0  0  0
   19.5941   19.2015   21.2924 C   0  0  0  0  0  0  0  0  0  0  0  0
   19.7737   20.2194   20.9189 H   0  0  0  0  0  0  0  0  0  0  0  0
   19.6027   18.5358   20.4180 H   0  0  0  0  0  0  0  0  0  0  0  0
   18.2130   19.1386   21.9753 C   0  0  0  0  0  0  0  0  0  0  0  0
   18.1685   19.8197   22.8353 H   0  0  0  0  0  0  0  0  0  0  0  0
   17.4208   19.4282   21.2725 H   0  0  0  0  0  0  0  0  0  0  0  0
   17.9962   18.1226   22.3305 H   0  0  0  0  0  0  0  0  0  0  0  0
  1  2  1  0  0  0  0
  1  3  2  0  0  0  0
  1  4  1  0  0  0  0
  4  5  1  0  0  0  0
  4  6  1  0  0  0  0
  4  7  1  0  0  0  0
  7  8  1  0  0  0  0
  7  9  1  0  0  0  0
  7 10  1  0  0  0  0
 10 11  1  0  0  0  0
 10 12  1  0  0  0  0
 10 13  1  0  0  0  0
M  END
> <VConfSearch Rank>
713

> <Conf_Id>
0

> <Delta U+W>
0.000

> <U+W>
-58.332

> <U>
8.390

> <W>
-66.722

> <W(PB)>
-68.455

> <W(SA)>
1.733

> <Valence>
6.333

> <Coulomb>
1.215

> <VdW>
0.842

> <VdW6>
-3.344

> <VdW12>
4.186

> <Bond>
0.091

> <Angle>
2.713

> <Pdih>
3.529

> <Idih>
0.000

> <Tether>
0.000

$$$$
VeraChem MOL file


 13 12  0  0  0  0  0  0  0  0999 V2000     
   18.1675   18.1027   21.3191 C   0  0  0  0  0  0  0  0  0  0  0  0
   18.1822   17.4211   20.3139 O   0  5  0  0  0  0  0  0  0  0  0  0
   17.1606   18.6100   21.7712 O   0  0  0  0  0  0  0  0  0  0  0  0
   19.4871   18.3506   22.0419 C   0  0  0  0  0  0  0  0  0  0  0  0
   20.1192   17.4636   21.9126 H   0  0  0  0  0  0  0  0  0  0  0  0
   19.2767   18.4440   23.1143 H   0  0  0  0  0  0  0  0  0  0  0  0
   20.2275   19.6110   21.5327 C   0  0  0  0  0  0  0  0  0  0  0  0
   20.4240   19.5106   20.4561 H   0  0  0  0  0  0  0  0  0  0  0  0
   19.5815   20.4912   21.6582 H   0  0  0  0  0  0  0  0  0  0  0  0
   21.5562   19.8335   22.2825 C   0  0  0  0  0  0  0  0  0  0  0  0
   22.0660   20.7308   21.9079 H   0  0  0  0  0  0  0  0  0  0  0  0
   21.3825   19.9666   23.3585 H   0  0  0  0  0  0  0  0  0  0  0  0
   22.2316   18.9785   22.1471 H   0  0  0  0  0  0  0  0  0  0  0  0
  1  2  1  0  0  0  0
  1  3  2  0  0  0  0
  1  4  1  0  0  0  0
  4  5  1  0  0  0  0
  4  6  1  0  0  0  0
  4  7  1  0  0  0  0
  7  8  1  0  0  0  0
  7  9  1  0  0  0  0
  7 10  1  0  0  0  0
 10 11  1  0  0  0  0
 10 12  1  0  0  0  0
 10 13  1  0  0  0  0
M  END
> <VConfSearch Rank>
714

> <Conf_Id>
1

> <Delta U+W>
-1.339

> <U+W>
-59.672

> <U>
7.389

> <W>
-67.061

> <W(PB)>
-68.767

> <W(SA)>
1.707

> <Valence>
5.822

> <Coulomb>
1.255

> <VdW>
0.312

> <VdW6>
-3.061

> <VdW12>
3.372

> <Bond>
0.059

> <Angle>
2.241

> <Pdih>
3.522

> <Idih>
0.000

> <Tether>
0.000

$$$$
VeraChem MOL file


 13 12  0  0  0  0  0  0  0  0999 V2000     
   19.6999   20.6564   21.5750 C   0  0  0  0  0  0  0  0  0  0  0  0
   18.5470   20.8490   21.2434 O   0  5  0  0  0  0  0  0  0  0  0  0
   20.3325   21.4226   22.2740 O   0  0  0  0  0  0  0  0  0  0  0  0
   20.3990   19.4028   21.0550 C   0  0  0  0  0  0  0  0  0  0  0  0
   21.4826   19.5334   21.1653 H   0  0  0  0  0  0  0  0  0  0  0  0
   20.1959   19.3373   19.9795 H   0  0  0  0  0  0  0  0  0  0  0  0
   19.9464   18.0909   21.7460 C   0  0  0  0  0  0  0  0  0  0  0  0
   18.8549   17.9906   21.6656 H   0  0  0  0  0  0  0  0  0  0  0  0
   20.3821   17.2347   21.2131 H   0  0  0  0  0  0  0  0  0  0  0  0
   20.3675   18.0289   23.2288 C   0  0  0  0  0  0  0  0  0  0  0  0
   19.9128   18.8473   23.8027 H   0  0  0  0  0  0  0  0  0  0  0  0
   20.0496   17.0809   23.6819 H   0  0  0  0  0  0  0  0  0  0  0  0
   21.4580   18.1051   23.3306 H   0  0  0  0  0  0  0  0  0  0  0  0
  1  2  1  0  0  0  0
  1  3  2  0  0  0  0
  1  4  1  0  0  0  0
  4  5  1  0  0  0  0
  4  6  1  0  0  0  0
  4  7  1  0  0  0  0
  7  8  1  0  0  0  0
  7  9  1  0  0  0  0
  7 10  1  0  0  0  0
 10 11  1  0  0  0  0
 10 12  1  0  0  0  0
 10 13  1  0  0  0  0
M  END
> <VConfSearch Rank>
715

> <Conf_Id>
4

> <Delta U+W>
0.281

> <U+W>
-58.051

> <U>
9.781

> <W>
-67.832

> <W(PB)>
-69.535

> <W(SA)>
1.703

> <Valence>
6.123

> <Coulomb>
3.449

> <VdW>
0.209

> <VdW6>
-3.762

> <VdW12>
3.972

> <Bond>
0.078

> <Angle>
2.428

> <Pdih>
3.616

> <Idih>
0.002

> <Tether>
0.000

$$$$
VeraChem MOL file


 13 12  0  0  0  0  0  0  0  0999 V2000     
   20.0334   20.2162   20.7138 C   0  0  0  0  0  0  0  0  0  0  0  0
   18.8856   20.3326   20.3330 O   0  5  0  0  0  0  0  0  0  0  0  0
   20.7985   21.1527   20.8305 O   0  0  0  0  0  0  0  0  0  0  0  0
   20.5550   18.8164   21.0288 C   0  0  0  0  0  0  0  0  0  0  0  0
   21.5221   18.7065   20.5238 H   0  0  0  0  0  0  0  0  0  0  0  0
   19.8777   18.0796   20.5797 H   0  0  0  0  0  0  0  0  0  0  0  0
   20.7282   18.5294   22.5424 C   0  0  0  0  0  0  0  0  0  0  0  0
   21.2445   17.5681   22.6697 H   0  0  0  0  0  0  0  0  0  0  0  0
   21.3749   19.2968   22.9905 H   0  0  0  0  0  0  0  0  0  0  0  0
   19.3808   18.4809   23.2921 C   0  0  0  0  0  0  0  0  0  0  0  0
   18.7269   17.7044   22.8741 H   0  0  0  0  0  0  0  0  0  0  0  0
   19.5375   18.2567   24.3553 H   0  0  0  0  0  0  0  0  0  0  0  0
   18.8560   19.4430   23.2232 H   0  0  0  0  0  0  0  0  0  0  0  0
  1  2  1  0  0  0  0
  1  3  2  0  0  0  0
  1  4  1  0  0  0  0
  4  5  1  0  0  0  0
  4  6  1  0  0  0  0
  4  7  1  0  0  0  0
  7  8  1  0  0  0  0
  7  9  1  0  0  0  0
  7 10  1  0  0  0  0
 10 11  1  0  0  0  0
 10 12  1  0  0  0  0
 10 13  1  0  0  0  0
M  END
> <VConfSearch Rank>
716

> <Conf_Id>
36

> <Delta U+W>
0.272

> <U+W>
-58.060

> <U>
9.781

> <W>
-67.841

> <W(PB)>
-69.537

> <W(SA)>
1.696

> <Valence>
6.123

> <Coulomb>
3.449

> <VdW>
0.209

> <VdW6>
-3.762

> <VdW12>
3.972

> <Bond>
0.078

> <Angle>
2.428

> <Pdih>
3.616

> <Idih>
0.002

> <Tether>
0.000

$$$$
VeraChem MOL file


 13 12  0  0  0  0  0  0  0  0999 V2000     
   21.1571   17.3418   22.5340 C   0  0  0  0  0  0  0  0  0  0  0  0
   22.2797   17.7122   22.2512 O   0  5  0  0  0  0  0  0  0  0  0  0
   20.9281   16.2796   23.0761 O   0  0  0  0  0  0  0  0  0  0  0  0
   19.9570   18.2316   22.2045 C   0  0  0  0  0  0  0  0  0  0  0  0
   19.4236   18.4232   23.1432 H   0  0  0  0  0  0  0  0  0  0  0  0
   19.2824   17.6488   21.5661 H   0  0  0  0  0  0  0  0  0  0  0  0
   20.2977   19.5776   21.5130 C   0  0  0  0  0  0  0  0  0  0  0  0
   20.9761   20.1589   22.1530 H   0  0  0  0  0  0  0  0  0  0  0  0
   20.8347   19.3834   20.5740 H   0  0  0  0  0  0  0  0  0  0  0  0
   19.0294   20.4046   21.2204 C   0  0  0  0  0  0  0  0  0  0  0  0
   18.4904   20.6387   22.1478 H   0  0  0  0  0  0  0  0  0  0  0  0
   19.2903   21.3523   20.7316 H   0  0  0  0  0  0  0  0  0  0  0  0
   18.3479   19.8570   20.5562 H   0  0  0  0  0  0  0  0  0  0  0  0
  1  2  1  0  0  0  0
  1  3  2  0  0  0  0
  1  4  1  0  0  0  0
  4  5  1  0  0  0  0
  4  6  1  0  0  0  0
  4  7  1  0  0  0  0
  7  8  1  0  0  0  0
  7  9  1  0  0  0  0
  7 10  1  0  0  0  0
 10 11  1  0  0  0  0
 10 12  1  0  0  0  0
 10 13  1  0  0  0  0
M  END
> <VConfSearch Rank>
717

> <Conf_Id>
0

> <Delta U+W>
0.000

> <U+W>
-58.332

> <U>
8.390

> <W>
-66.722

> <W(PB)>
-68.455

> <W(SA)>
1.733

> <Valence>
6.333

> <Coulomb>
1.215

> <VdW>
0.842

> <VdW6>
-3.344

> <VdW12>
4.186

> <Bond>
0.091

> <Angle>
2.713

> <Pdih>
3.529

> <Idih>
0.000

> <Tether>
0.000

$$$$
VeraChem MOL file


 13 12  0  0  0  0  0  0  0  0999 V2000     
   20.8142   17.9572   23.4471 C   0  0  0  0  0  0  0  0  0  0  0  0
   21.9584   18.2339   23.7462 O   0  5  0  0  0  0  0  0  0  0  0  0
   20.2974   16.8853   23.6907 O   0  0  0  0  0  0  0  0  0  0  0  0
   19.9879   19.0053   22.7094 C   0  0  0  0  0  0  0  0  0  0  0  0
   20.3089   19.9965   23.0523 H   0  0  0  0  0  0  0  0  0  0  0  0
   18.9390   18.8844   23.0066 H   0  0  0  0  0  0  0  0  0  0  0  0
   20.1203   18.9055   21.1704 C   0  0  0  0  0  0  0  0  0  0  0  0
   21.1757   19.0181   20.8853 H   0  0  0  0  0  0  0  0  0  0  0  0
   19.8055   17.9059   20.8396 H   0  0  0  0  0  0  0  0  0  0  0  0
   19.2741   19.9774   20.4548 C   0  0  0  0  0  0  0  0  0  0  0  0
   19.3808   19.8907   19.3656 H   0  0  0  0  0  0  0  0  0  0  0  0
   18.2098   19.8666   20.7010 H   0  0  0  0  0  0  0  0  0  0  0  0
   19.5906   20.9874   20.7470 H   0  0  0  0  0  0  0  0  0  0  0  0
  1  2  1  0  0  0  0
  1  3  2  0  0  0  0
  1  4  1  0  0  0  0
  4  5  1  0  0  0  0
  4  6  1  0  0  0  0
  4  7  1  0  0  0  0
  7  8  1  0  0  0  0
  7  9  1  0  0  0  0
  7 10  1  0  0  0  0
 10 11  1  0  0  0  0
 10 12  1  0  0  0  0
 10 13  1  0  0  0  0
M  END
> <VConfSearch Rank>
718

> <Conf_Id>
1

> <Delta U+W>
-1.339

> <U+W>
-59.672

> <U>
7.389

> <W>
-67.061

> <W(PB)>
-68.767

> <W(SA)>
1.707

> <Valence>
5.822

> <Coulomb>
1.255

> <VdW>
0.312

> <VdW6>
-3.061

> <VdW12>
3.372

> <Bond>
0.059

> <Angle>
2.241

> <Pdih>
3.522

> <Idih>
0.000

> <Tether>
0.000

$$$$
VeraChem MOL file


 13 12  0  0  0  0  0  0  0  0999 V2000     
   20.6399   19.1757   23.7007 C   0  0  0  0  0  0  0  0  0  0  0  0
   21.6210   18.5457   24.0421 O   0  5  0  0  0  0  0  0  0  0  0  0
   20.4193   20.3162   24.0564 O   0  0  0  0  0  0  0  0  0  0  0  0
   19.6143   18.4831   22.8067 C   0  0  0  0  0  0  0  0  0  0  0  0
   18.6717   19.0422   22.8548 H   0  0  0  0  0  0  0  0  0  0  0  0
   19.4184   17.4946   23.2389 H   0  0  0  0  0  0  0  0  0  0  0  0
   20.0643   18.3212   21.3321 C   0  0  0  0  0  0  0  0  0  0  0  0
   21.0294   17.7965   21.2977 H   0  0  0  0  0  0  0  0  0  0  0  0
   19.3408   17.6862   20.8027 H   0  0  0  0  0  0  0  0  0  0  0  0
   20.1799   19.6732   20.5982 C   0  0  0  0  0  0  0  0  0  0  0  0
   20.9291   20.3186   21.0756 H   0  0  0  0  0  0  0  0  0  0  0  0
   20.4806   19.5218   19.5534 H   0  0  0  0  0  0  0  0  0  0  0  0
   19.2193   20.2049   20.6015 H   0  0  0  0  0  0  0  0  0  0  0  0
  1  2  1  0  0  0  0
  1  3  2  0  0  0  0
  1  4  1  0  0  0  0
  4  5  1  0  0  0  0
  4  6  1  0  0  0  0
  4  7  1  0  0  0  0
  7  8  1  0  0  0  0
  7  9  1  0  0  0  0
  7 10  1  0  0  0  0
 10 11  1  0  0  0  0
 10 12  1  0  0  0  0
 10 13  1  0  0  0  0
M  END
> <VConfSearch Rank>
719

> <Conf_Id>
4

> <Delta U+W>
0.281

> <U+W>
-58.051

> <U>
9.781

> <W>
-67.832

> <W(PB)>
-69.535

> <W(SA)>
1.703

> <Valence>
6.123

> <Coulomb>
3.449

> <VdW>
0.209

> <VdW6>
-3.762

> <VdW12>
3.972

> <Bond>
0.078

> <Angle>
2.428

> <Pdih>
3.616

> <Idih>
0.002

> <Tether>
0.000

$$$$
VeraChem MOL file


 13 12  0  0  0  0  0  0  0  0999 V2000     
   21.4167   18.4394   23.1112 C   0  0  0  0  0  0  0  0  0  0  0  0
   22.2409   17.7913   22.4976 O   0  5  0  0  0  0  0  0  0  0  0  0
   21.7024   19.2139   24.0027 O   0  0  0  0  0  0  0  0  0  0  0  0
   19.9412   18.2457   22.7706 C   0  0  0  0  0  0  0  0  0  0  0  0
   19.4035   18.1029   23.7156 H   0  0  0  0  0  0  0  0  0  0  0  0
   19.8314   17.3153   22.2000 H   0  0  0  0  0  0  0  0  0  0  0  0
   19.3093   19.4276   21.9915 C   0  0  0  0  0  0  0  0  0  0  0  0
   18.2237   19.2739   21.9226 H   0  0  0  0  0  0  0  0  0  0  0  0
   19.4611   20.3607   22.5520 H   0  0  0  0  0  0  0  0  0  0  0  0
   19.8886   19.5740   20.5692 C   0  0  0  0  0  0  0  0  0  0  0  0
   19.7276   18.6593   19.9837 H   0  0  0  0  0  0  0  0  0  0  0  0
   19.4068   20.4058   20.0390 H   0  0  0  0  0  0  0  0  0  0  0  0
   20.9680   19.7735   20.6013 H   0  0  0  0  0  0  0  0  0  0  0  0
  1  2  1  0  0  0  0
  1  3  2  0  0  0  0
  1  4  1  0  0  0  0
  4  5  1  0  0  0  0
  4  6  1  0  0  0  0
  4  7  1  0  0  0  0
  7  8  1  0  0  0  0
  7  9  1  0  0  0  0
  7 10  1  0  0  0  0
 10 11  1  0  0  0  0
 10 12  1  0  0  0  0
 10 13  1  0  0  0  0
M  END
> <VConfSearch Rank>
720

> <Conf_Id>
36

> <Delta U+W>
0.272

> <U+W>
-58.060

> <U>
9.781

> <W>
-67.841

> <W(PB)>
-69.537

> <W(SA)>
1.696

> <Valence>
6.123

> <Coulomb>
3.449

> <VdW>
0.209

> <VdW6>
-3.762

> <VdW12>
3.972

> <Bond>
0.078

> <Angle>
2.428

> <Pdih>
3.616

> <Idih>
0.002

> <Tether>
0.000

$$$$
VeraChem MOL file


 13 12  0  0  0  0  0  0  0  0999 V2000     
   19.6598   17.4099   20.4479 C   0  0  0  0  0  0  0  0  0  0  0  0
   19.2446   18.0396   19.4948 O   0  5  0  0  0  0  0  0  0  0  0  0
   19.7718   16.2007   20.4435 O   0  0  0  0  0  0  0  0  0  0  0  0
   20.0677   18.1452   21.7260 C   0  0  0  0  0  0  0  0  0  0  0  0
   21.1134   17.8878   21.9326 H   0  0  0  0  0  0  0  0  0  0  0  0
   19.4684   17.7331   22.5466 H   0  0  0  0  0  0  0  0  0  0  0  0
   19.9075   19.6874   21.6853 C   0  0  0  0  0  0  0  0  0  0  0  0
   20.5066   20.0981   20.8605 H   0  0  0  0  0  0  0  0  0  0  0  0
   18.8596   19.9432   21.4752 H   0  0  0  0  0  0  0  0  0  0  0  0
   20.3417   20.3403   23.0131 C   0  0  0  0  0  0  0  0  0  0  0  0
   21.3961   20.1250   23.2305 H   0  0  0  0  0  0  0  0  0  0  0  0
   20.2213   21.4305   22.9652 H   0  0  0  0  0  0  0  0  0  0  0  0
   19.7359   19.9689   23.8501 H   0  0  0  0  0  0  0  0  0  0  0  0
  1  2  1  0  0  0  0
  1  3  2  0  0  0  0
  1  4  1  0  0  0  0
  4  5  1  0  0  0  0
  4  6  1  0  0  0  0
  4  7  1  0  0  0  0
  7  8  1  0  0  0  0
  7  9  1  0  0  0  0
  7 10  1  0  0  0  0
 10 11  1  0  0  0  0
 10 12  1  0  0  0  0
 10 13  1  0  0  0  0
M  END
> <VConfSearch Rank>
721

> <Conf_Id>
0

> <Delta U+W>
0.000

> <U+W>
-58.332

> <U>
8.390

> <W>
-66.722

> <W(PB)>
-68.455

> <W(SA)>
1.733

> <Valence>
6.333

> <Coulomb>
1.215

> <VdW>
0.842

> <VdW6>
-3.344

> <VdW12>
4.186

> <Bond>
0.091

> <Angle>
2.713

> <Pdih>
3.529

> <Idih>
0.000

> <Tether>
0.000

$$$$
VeraChem MOL file


 13 12  0  0  0  0  0  0  0  0999 V2000     
   21.3452   19.5633   20.2997 C   0  0  0  0  0  0  0  0  0  0  0  0
   21.1238   19.0859   19.2050 O   0  5  0  0  0  0  0  0  0  0  0  0
   22.4453   19.9290   20.6623 O   0  0  0  0  0  0  0  0  0  0  0  0
   20.1830   19.6931   21.2785 C   0  0  0  0  0  0  0  0  0  0  0  0
   19.2699   19.8822   20.7010 H   0  0  0  0  0  0  0  0  0  0  0  0
   20.3596   20.5774   21.9028 H   0  0  0  0  0  0  0  0  0  0  0  0
   20.0002   18.4403   22.1689 C   0  0  0  0  0  0  0  0  0  0  0  0
   19.8340   17.5596   21.5328 H   0  0  0  0  0  0  0  0  0  0  0  0
   20.9239   18.2551   22.7350 H   0  0  0  0  0  0  0  0  0  0  0  0
   18.8187   18.6029   23.1461 C   0  0  0  0  0  0  0  0  0  0  0  0
   18.7051   17.7055   23.7682 H   0  0  0  0  0  0  0  0  0  0  0  0
   18.9761   19.4604   23.8135 H   0  0  0  0  0  0  0  0  0  0  0  0
   17.8779   18.7596   22.6021 H   0  0  0  0  0  0  0  0  0  0  0  0
  1  2  1  0  0  0  0
  1  3  2  0  0  0  0
  1  4  1  0  0  0  0
  4  5  1  0  0  0  0
  4  6  1  0  0  0  0
  4  7  1  0  0  0  0
  7  8  1  0  0  0  0
  7  9  1  0  0  0  0
  7 10  1  0  0  0  0
 10 11  1  0  0  0  0
 10 12  1  0  0  0  0
 10 13  1  0  0  0  0
M  END
> <VConfSearch Rank>
722

> <Conf_Id>
1

> <Delta U+W>
-1.339

> <U+W>
-59.672

> <U>
7.389

> <W>
-67.061

> <W(PB)>
-68.767

> <W(SA)>
1.707

> <Valence>
5.822

> <Coulomb>
1.255

> <VdW>
0.312

> <VdW6>
-3.061

> <VdW12>
3.372

> <Bond>
0.059

> <Angle>
2.241

> <Pdih>
3.522

> <Idih>
0.000

> <Tether>
0.000

$$$$
VeraChem MOL file


 13 12  0  0  0  0  0  0  0  0999 V2000     
   21.7683   18.4055   21.5553 C   0  0  0  0  0  0  0  0  0  0  0  0
   21.8260   17.3641   20.9322 O   0  5  0  0  0  0  0  0  0  0  0  0
   22.4784   19.3638   21.3249 O   0  0  0  0  0  0  0  0  0  0  0  0
   20.7751   18.4993   22.7110 C   0  0  0  0  0  0  0  0  0  0  0  0
   21.0613   19.3416   23.3528 H   0  0  0  0  0  0  0  0  0  0  0  0
   20.8875   17.5899   23.3133 H   0  0  0  0  0  0  0  0  0  0  0  0
   19.2969   18.6444   22.2672 C   0  0  0  0  0  0  0  0  0  0  0  0
   19.0328   17.8184   21.5920 H   0  0  0  0  0  0  0  0  0  0  0  0
   18.6461   18.5526   23.1475 H   0  0  0  0  0  0  0  0  0  0  0  0
   19.0185   19.9938   21.5733 C   0  0  0  0  0  0  0  0  0  0  0  0
   19.6214   20.1007   20.6618 H   0  0  0  0  0  0  0  0  0  0  0  0
   17.9608   20.0722   21.2901 H   0  0  0  0  0  0  0  0  0  0  0  0
   19.2549   20.8338   22.2395 H   0  0  0  0  0  0  0  0  0  0  0  0
  1  2  1  0  0  0  0
  1  3  2  0  0  0  0
  1  4  1  0  0  0  0
  4  5  1  0  0  0  0
  4  6  1  0  0  0  0
  4  7  1  0  0  0  0
  7  8  1  0  0  0  0
  7  9  1  0  0  0  0
  7 10  1  0  0  0  0
 10 11  1  0  0  0  0
 10 12  1  0  0  0  0
 10 13  1  0  0  0  0
M  END
> <VConfSearch Rank>
723

> <Conf_Id>
4

> <Delta U+W>
0.281

> <U+W>
-58.051

> <U>
9.781

> <W>
-67.832

> <W(PB)>
-69.535

> <W(SA)>
1.703

> <Valence>
6.123

> <Coulomb>
3.449

> <VdW>
0.209

> <VdW6>
-3.762

> <VdW12>
3.972

> <Bond>
0.078

> <Angle>
2.428

> <Pdih>
3.616

> <Idih>
0.002

> <Tether>
0.000

$$$$
VeraChem MOL file


 13 12  0  0  0  0  0  0  0  0999 V2000     
   19.7027   19.4843   20.3316 C   0  0  0  0  0  0  0  0  0  0  0  0
   19.4165   18.5114   19.6627 O   0  5  0  0  0  0  0  0  0  0  0  0
   19.1390   20.5558   20.2304 O   0  0  0  0  0  0  0  0  0  0  0  0
   20.8543   19.3675   21.3271 C   0  0  0  0  0  0  0  0  0  0  0  0
   21.5065   20.2358   21.1759 H   0  0  0  0  0  0  0  0  0  0  0  0
   21.4467   18.4789   21.0764 H   0  0  0  0  0  0  0  0  0  0  0  0
   20.4075   19.3102   22.8105 C   0  0  0  0  0  0  0  0  0  0  0  0
   21.2936   19.3796   23.4561 H   0  0  0  0  0  0  0  0  0  0  0  0
   19.7807   20.1834   23.0397 H   0  0  0  0  0  0  0  0  0  0  0  0
   19.6396   18.0150   23.1462 C   0  0  0  0  0  0  0  0  0  0  0  0
   20.2568   17.1295   22.9452 H   0  0  0  0  0  0  0  0  0  0  0  0
   19.3556   17.9974   24.2064 H   0  0  0  0  0  0  0  0  0  0  0  0
   18.7217   17.9343   22.5489 H   0  0  0  0  0  0  0  0  0  0  0  0
  1  2  1  0  0  0  0
  1  3  2  0  0  0  0
  1  4  1  0  0  0  0
  4  5  1  0  0  0  0
  4  6  1  0  0  0  0
  4  7  1  0  0  0  0
  7  8  1  0  0  0  0
  7  9  1  0  0  0  0
  7 10  1  0  0  0  0
 10 11  1  0  0  0  0
 10 12  1  0  0  0  0
 10 13  1  0  0  0  0
M  END
> <VConfSearch Rank>
724

> <Conf_Id>
36

> <Delta U+W>
0.272

> <U+W>
-58.060

> <U>
9.781

> <W>
-67.841

> <W(PB)>
-69.537

> <W(SA)>
1.696

> <Valence>
6.123

> <Coulomb>
3.449

> <VdW>
0.209

> <VdW6>
-3.762

> <VdW12>
3.972

> <Bond>
0.078

> <Angle>
2.428

> <Pdih>
3.616

> <Idih>
0.002

> <Tether>
0.000

$$$$
VeraChem MOL file


 13 12  0  0  0  0  0  0  0  0999 V2000     
   20.8994   19.6752   19.9977 C   0  0  0  0  0  0  0  0  0  0  0  0
   19.8972   19.8933   19.3455 O   0  5  0  0  0  0  0  0  0  0  0  0
   22.0208   19.8508   19.5658 O   0  0  0  0  0  0  0  0  0  0  0  0
   20.7759   19.1548   21.4311 C   0  0  0  0  0  0  0  0  0  0  0  0
   21.2972   19.8652   22.0837 H   0  0  0  0  0  0  0  0  0  0  0  0
   21.3260   18.2078   21.4845 H   0  0  0  0  0  0  0  0  0  0  0  0
   19.3254   18.9458   21.9394 C   0  0  0  0  0  0  0  0  0  0  0  0
   18.7750   19.8953   21.8823 H   0  0  0  0  0  0  0  0  0  0  0  0
   18.8039   18.2359   21.2823 H   0  0  0  0  0  0  0  0  0  0  0  0
   19.3001   18.4211   23.3892 C   0  0  0  0  0  0  0  0  0  0  0  0
   19.7889   19.1288   24.0717 H   0  0  0  0  0  0  0  0  0  0  0  0
   18.2665   18.2795   23.7310 H   0  0  0  0  0  0  0  0  0  0  0  0
   19.8180   17.4561   23.4669 H   0  0  0  0  0  0  0  0  0  0  0  0
  1  2  1  0  0  0  0
  1  3  2  0  0  0  0
  1  4  1  0  0  0  0
  4  5  1  0  0  0  0
  4  6  1  0  0  0  0
  4  7  1  0  0  0  0
  7  8  1  0  0  0  0
  7  9  1  0  0  0  0
  7 10  1  0  0  0  0
 10 11  1  0  0  0  0
 10 12  1  0  0  0  0
 10 13  1  0  0  0  0
M  END
> <VConfSearch Rank>
725

> <Conf_Id>
0

> <Delta U+W>
0.000

> <U+W>
-58.332

> <U>
8.390

> <W>
-66.722

> <W(PB)>
-68.455

> <W(SA)>
1.733

> <Valence>
6.333

> <Coulomb>
1.215

> <VdW>
0.842

> <VdW6>
-3.344

> <VdW12>
4.186

> <Bond>
0.091

> <Angle>
2.713

> <Pdih>
3.529

> <Idih>
0.000

> <Tether>
0.000

$$$$
VeraChem MOL file


 13 12  0  0  0  0  0  0  0  0999 V2000     
   19.7154   17.9528   20.0420 C   0  0  0  0  0  0  0  0  0  0  0  0
   20.7097   17.7768   19.3669 O   0  5  0  0  0  0  0  0  0  0  0  0
   18.5876   17.9425   19.5911 O   0  0  0  0  0  0  0  0  0  0  0  0
   19.8938   18.2196   21.5328 C   0  0  0  0  0  0  0  0  0  0  0  0
   20.7769   17.6666   21.8754 H   0  0  0  0  0  0  0  0  0  0  0  0
   19.0269   17.8033   22.0603 H   0  0  0  0  0  0  0  0  0  0  0  0
   20.0462   19.7241   21.8633 C   0  0  0  0  0  0  0  0  0  0  0  0
   20.9111   20.1324   21.3220 H   0  0  0  0  0  0  0  0  0  0  0  0
   19.1608   20.2691   21.5071 H   0  0  0  0  0  0  0  0  0  0  0  0
   20.2246   19.9601   23.3765 C   0  0  0  0  0  0  0  0  0  0  0  0
   20.3309   21.0315   23.5909 H   0  0  0  0  0  0  0  0  0  0  0  0
   19.3576   19.5866   23.9372 H   0  0  0  0  0  0  0  0  0  0  0  0
   21.1214   19.4489   23.7507 H   0  0  0  0  0  0  0  0  0  0  0  0
  1  2  1  0  0  0  0
  1  3  2  0  0  0  0
  1  4  1  0  0  0  0
  4  5  1  0  0  0  0
  4  6  1  0  0  0  0
  4  7  1  0  0  0  0
  7  8  1  0  0  0  0
  7  9  1  0  0  0  0
  7 10  1  0  0  0  0
 10 11  1  0  0  0  0
 10 12  1  0  0  0  0
 10 13  1  0  0  0  0
M  END
> <VConfSearch Rank>
726

> <Conf_Id>
1

> <Delta U+W>
-1.339

> <U+W>
-59.672

> <U>
7.389

> <W>
-67.061

> <W(PB)>
-68.767

> <W(SA)>
1.707

> <Valence>
5.822

> <Coulomb>
1.255

> <VdW>
0.312

> <VdW6>
-3.061

> <VdW12>
3.372

> <Bond>
0.059

> <Angle>
2.241

> <Pdih>
3.522

> <Idih>
0.000

> <Tether>
0.000

$$$$
VeraChem MOL file


 13 12  0  0  0  0  0  0  0  0999 V2000     
   20.8904   17.8155   23.1361 C   0  0  0  0  0  0  0  0  0  0  0  0
   20.2320   17.5131   24.1114 O   0  5  0  0  0  0  0  0  0  0  0  0
   21.5731   17.0237   22.5173 O   0  0  0  0  0  0  0  0  0  0  0  0
   20.8861   19.2751   22.6885 C   0  0  0  0  0  0  0  0  0  0  0  0
   21.7462   19.4428   22.0287 H   0  0  0  0  0  0  0  0  0  0  0  0
   21.0469   19.8913   23.5811 H   0  0  0  0  0  0  0  0  0  0  0  0
   19.5783   19.7190   21.9843 C   0  0  0  0  0  0  0  0  0  0  0  0
   18.7195   19.5085   22.6370 H   0  0  0  0  0  0  0  0  0  0  0  0
   19.6017   20.8071   21.8345 H   0  0  0  0  0  0  0  0  0  0  0  0
   19.3780   19.0268   20.6202 C   0  0  0  0  0  0  0  0  0  0  0  0
   19.3055   17.9373   20.7374 H   0  0  0  0  0  0  0  0  0  0  0  0
   18.4550   19.3773   20.1403 H   0  0  0  0  0  0  0  0  0  0  0  0
   20.2155   19.2425   19.9439 H   0  0  0  0  0  0  0  0  0  0  0  0
  1  2  1  0  0  0  0
  1  3  2  0  0  0  0
  1  4  1  0  0  0  0
  4  5  1  0  0  0  0
  4  6  1  0  0  0  0
  4  7  1  0  0  0  0
  7  8  1  0  0  0  0
  7  9  1  0  0  0  0
  7 10  1  0  0  0  0
 10 11  1  0  0  0  0
 10 12  1  0  0  0  0
 10 13  1  0  0  0  0
M  END
> <VConfSearch Rank>
727

> <Conf_Id>
4

> <Delta U+W>
0.281

> <U+W>
-58.051

> <U>
9.781

> <W>
-67.832

> <W(PB)>
-69.535

> <W(SA)>
1.703

> <Valence>
6.123

> <Coulomb>
3.449

> <VdW>
0.209

> <VdW6>
-3.762

> <VdW12>
3.972

> <Bond>
0.078

> <Angle>
2.428

> <Pdih>
3.616

> <Idih>
0.002

> <Tether>
0.000

$$$$
VeraChem MOL file


 13 12  0  0  0  0  0  0  0  0999 V2000     
   18.5834   18.1183   21.6266 C   0  0  0  0  0  0  0  0  0  0  0  0
   18.4298   18.0608   20.4229 O   0  5  0  0  0  0  0  0  0  0  0  0
   18.2749   17.2204   22.3847 O   0  0  0  0  0  0  0  0  0  0  0  0
   19.1609   19.3990   22.2242 C   0  0  0  0  0  0  0  0  0  0  0  0
   18.5187   19.6859   23.0653 H   0  0  0  0  0  0  0  0  0  0  0  0
   19.0838   20.2003   21.4791 H   0  0  0  0  0  0  0  0  0  0  0  0
   20.6253   19.2659   22.7155 C   0  0  0  0  0  0  0  0  0  0  0  0
   20.9058   20.1768   23.2616 H   0  0  0  0  0  0  0  0  0  0  0  0
   20.6992   18.4340   23.4299 H   0  0  0  0  0  0  0  0  0  0  0  0
   21.6194   19.0470   21.5563 C   0  0  0  0  0  0  0  0  0  0  0  0
   21.5776   19.8791   20.8411 H   0  0  0  0  0  0  0  0  0  0  0  0
   22.6470   18.9768   21.9359 H   0  0  0  0  0  0  0  0  0  0  0  0
   21.3951   18.1189   21.0139 H   0  0  0  0  0  0  0  0  0  0  0  0
  1  2  1  0  0  0  0
  1  3  2  0  0  0  0
  1  4  1  0  0  0  0
  4  5  1  0  0  0  0
  4  6  1  0  0  0  0
  4  7  1  0  0  0  0
  7  8  1  0  0  0  0
  7  9  1  0  0  0  0
  7 10  1  0  0  0  0
 10 11  1  0  0  0  0
 10 12  1  0  0  0  0
 10 13  1  0  0  0  0
M  END
> <VConfSearch Rank>
728

> <Conf_Id>
36

> <Delta U+W>
0.272

> <U+W>
-58.060

> <U>
9.781

> <W>
-67.841

> <W(PB)>
-69.537

> <W(SA)>
1.696

> <Valence>
6.123

> <Coulomb>
3.449

> <VdW>
0.209

> <VdW6>
-3.762

> <VdW12>
3.972

> <Bond>
0.078

> <Angle>
2.428

> <Pdih>
3.616

> <Idih>
0.002

> <Tether>
0.000

$$$$
VeraChem MOL file


 13 12  0  0  0  0  0  0  0  0999 V2000     
   22.0856   18.5163   22.0601 C   0  0  0  0  0  0  0  0  0  0  0  0
   22.1148   18.2854   23.2531 O   0  5  0  0  0  0  0  0  0  0  0  0
   23.0664   18.4417   21.3479 O   0  0  0  0  0  0  0  0  0  0  0  0
   20.7685   18.9220   21.3958 C   0  0  0  0  0  0  0  0  0  0  0  0
   20.5685   18.1991   20.5960 H   0  0  0  0  0  0  0  0  0  0  0  0
   20.9296   19.8945   20.9156 H   0  0  0  0  0  0  0  0  0  0  0  0
   19.5437   19.0041   22.3441 C   0  0  0  0  0  0  0  0  0  0  0  0
   19.3857   18.0294   22.8265 H   0  0  0  0  0  0  0  0  0  0  0  0
   19.7473   19.7268   23.1466 H   0  0  0  0  0  0  0  0  0  0  0  0
   18.2651   19.4189   21.5883 C   0  0  0  0  0  0  0  0  0  0  0  0
   18.0224   18.6945   20.7997 H   0  0  0  0  0  0  0  0  0  0  0  0
   17.4102   19.4715   22.2750 H   0  0  0  0  0  0  0  0  0  0  0  0
   18.3868   20.4056   21.1223 H   0  0  0  0  0  0  0  0  0  0  0  0
  1  2  1  0  0  0  0
  1  3  2  0  0  0  0
  1  4  1  0  0  0  0
  4  5  1  0  0  0  0
  4  6  1  0  0  0  0
  4  7  1  0  0  0  0
  7  8  1  0  0  0  0
  7  9  1  0  0  0  0
  7 10  1  0  0  0  0
 10 11  1  0  0  0  0
 10 12  1  0  0  0  0
 10 13  1  0  0  0  0
M  END
> <VConfSearch Rank>
729

> <Conf_Id>
0

> <Delta U+W>
0.000

> <U+W>
-58.332

> <U>
8.390

> <W>
-66.722

> <W(PB)>
-68.455

> <W(SA)>
1.733

> <Valence>
6.333

> <Coulomb>
1.215

> <VdW>
0.842

> <VdW6>
-3.344

> <VdW12>
4.186

> <Bond>
0.091

> <Angle>
2.713

> <Pdih>
3.529

> <Idih>
0.000

> <Tether>
0.000

$$$$
VeraChem MOL file


 13 12  0  0  0  0  0  0  0  0999 V2000     
   19.1294   19.7480   23.6261 C   0  0  0  0  0  0  0  0  0  0  0  0
   18.6613   20.8681   23.5877 O   0  5  0  0  0  0  0  0  0  0  0  0
   19.5125   19.2154   24.6484 O   0  0  0  0  0  0  0  0  0  0  0  0
   19.2607   18.9758   22.3176 C   0  0  0  0  0  0  0  0  0  0  0  0
   18.4324   19.2715   21.6622 H   0  0  0  0  0  0  0  0  0  0  0  0
   19.1343   17.9086   22.5368 H   0  0  0  0  0  0  0  0  0  0  0  0
   20.6145   19.2170   21.6070 C   0  0  0  0  0  0  0  0  0  0  0  0
   20.7344   20.2899   21.4014 H   0  0  0  0  0  0  0  0  0  0  0  0
   21.4365   18.9267   22.2762 H   0  0  0  0  0  0  0  0  0  0  0  0
   20.7157   18.4234   20.2890 C   0  0  0  0  0  0  0  0  0  0  0  0
   21.6814   18.6071   19.8002 H   0  0  0  0  0  0  0  0  0  0  0  0
   20.6284   17.3444   20.4725 H   0  0  0  0  0  0  0  0  0  0  0  0
   19.9210   18.7182   19.5910 H   0  0  0  0  0  0  0  0  0  0  0  0
  1  2  1  0  0  0  0
  1  3  2  0  0  0  0
  1  4  1  0  0  0  0
  4  5  1  0  0  0  0
  4  6  1  0  0  0  0
  4  7  1  0  0  0  0
  7  8  1  0  0  0  0
  7  9  1  0  0  0  0
  7 10  1  0  0  0  0
 10 11  1  0  0  0  0
 10 12  1  0  0  0  0
 10 13  1  0  0  0  0
M  END
> <VConfSearch Rank>
730

> <Conf_Id>
1

> <Delta U+W>
-1.339

> <U+W>
-59.672

> <U>
7.389

> <W>
-67.061

> <W(PB)>
-68.767

> <W(SA)>
1.707

> <Valence>
5.822

> <Coulomb>
1.255

> <VdW>
0.312

> <VdW6>
-3.061

> <VdW12>
3.372

> <Bond>
0.059

> <Angle>
2.241

> <Pdih>
3.522

> <Idih>
0.000

> <Tether>
0.000

$$$$
VeraChem MOL file


 13 12  0  0  0  0  0  0  0  0999 V2000     
   21.7440   18.4009   21.4781 C   0  0  0  0  0  0  0  0  0  0  0  0
   21.8471   17.2105   21.2583 O   0  5  0  0  0  0  0  0  0  0  0  0
   22.2763   19.2558   20.7986 O   0  0  0  0  0  0  0  0  0  0  0  0
   20.9318   18.8413   22.6935 C   0  0  0  0  0  0  0  0  0  0  0  0
   21.1951   19.8784   22.9351 H   0  0  0  0  0  0  0  0  0  0  0  0
   21.2543   18.2268   23.5424 H   0  0  0  0  0  0  0  0  0  0  0  0
   19.3977   18.7081   22.5138 C   0  0  0  0  0  0  0  0  0  0  0  0
   19.1489   17.6754   22.2316 H   0  0  0  0  0  0  0  0  0  0  0  0
   18.9046   18.8997   23.4766 H   0  0  0  0  0  0  0  0  0  0  0  0
   18.8398   19.6854   21.4586 C   0  0  0  0  0  0  0  0  0  0  0  0
   19.2794   19.4929   20.4709 H   0  0  0  0  0  0  0  0  0  0  0  0
   17.7508   19.5790   21.3704 H   0  0  0  0  0  0  0  0  0  0  0  0
   19.0584   20.7257   21.7328 H   0  0  0  0  0  0  0  0  0  0  0  0
  1  2  1  0  0  0  0
  1  3  2  0  0  0  0
  1  4  1  0  0  0  0
  4  5  1  0  0  0  0
  4  6  1  0  0  0  0
  4  7  1  0  0  0  0
  7  8  1  0  0  0  0
  7  9  1  0  0  0  0
  7 10  1  0  0  0  0
 10 11  1  0  0  0  0
 10 12  1  0  0  0  0
 10 13  1  0  0  0  0
M  END
> <VConfSearch Rank>
731

> <Conf_Id>
4

> <Delta U+W>
0.281

> <U+W>
-58.051

> <U>
9.781

> <W>
-67.832

> <W(PB)>
-69.535

> <W(SA)>
1.703

> <Valence>
6.123

> <Coulomb>
3.449

> <VdW>
0.209

> <VdW6>
-3.762

> <VdW12>
3.972

> <Bond>
0.078

> <Angle>
2.428

> <Pdih>
3.616

> <Idih>
0.002

> <Tether>
0.000

$$$$
VeraChem MOL file


 13 12  0  0  0  0  0  0  0  0999 V2000     
   19.1989   20.4826   21.7249 C   0  0  0  0  0  0  0  0  0  0  0  0
   19.0122   20.6376   20.5345 O   0  5  0  0  0  0  0  0  0  0  0  0
   18.3786   20.7686   22.5742 O   0  0  0  0  0  0  0  0  0  0  0  0
   20.5478   19.9331   22.1823 C   0  0  0  0  0  0  0  0  0  0  0  0
   20.9068   20.5797   22.9919 H   0  0  0  0  0  0  0  0  0  0  0  0
   21.2648   20.0303   21.3578 H   0  0  0  0  0  0  0  0  0  0  0  0
   20.5000   18.4649   22.6779 C   0  0  0  0  0  0  0  0  0  0  0  0
   21.4692   18.2040   23.1244 H   0  0  0  0  0  0  0  0  0  0  0  0
   19.7494   18.3703   23.4752 H   0  0  0  0  0  0  0  0  0  0  0  0
   20.1834   17.4688   21.5433 C   0  0  0  0  0  0  0  0  0  0  0  0
   20.9347   17.5313   20.7452 H   0  0  0  0  0  0  0  0  0  0  0  0
   20.1764   16.4390   21.9233 H   0  0  0  0  0  0  0  0  0  0  0  0
   19.1987   17.6731   21.1021 H   0  0  0  0  0  0  0  0  0  0  0  0
  1  2  1  0  0  0  0
  1  3  2  0  0  0  0
  1  4  1  0  0  0  0
  4  5  1  0  0  0  0
  4  6  1  0  0  0  0
  4  7  1  0  0  0  0
  7  8  1  0  0  0  0
  7  9  1  0  0  0  0
  7 10  1  0  0  0  0
 10 11  1  0  0  0  0
 10 12  1  0  0  0  0
 10 13  1  0  0  0  0
M  END
> <VConfSearch Rank>
732

> <Conf_Id>
36

> <Delta U+W>
0.272

> <U+W>
-58.060

> <U>
9.781

> <W>
-67.841

> <W(PB)>
-69.537

> <W(SA)>
1.696

> <Valence>
6.123

> <Coulomb>
3.449

> <VdW>
0.209

> <VdW6>
-3.762

> <VdW12>
3.972

> <Bond>
0.078

> <Angle>
2.428

> <Pdih>
3.616

> <Idih>
0.002

> <Tether>
0.000

$$$$
VeraChem MOL file


 13 12  0  0  0  0  0  0  0  0999 V2000     
   18.3328   18.3732   20.6815 C   0  0  0  0  0  0  0  0  0  0  0  0
   17.7828   17.6536   21.4920 O   0  5  0  0  0  0  0  0  0  0  0  0
   17.8948   18.5683   19.5657 O   0  0  0  0  0  0  0  0  0  0  0  0
   19.6380   19.0795   21.0535 C   0  0  0  0  0  0  0  0  0  0  0  0
   19.4771   20.1561   20.9217 H   0  0  0  0  0  0  0  0  0  0  0  0
   20.3949   18.7767   20.3202 H   0  0  0  0  0  0  0  0  0  0  0  0
   20.1589   18.8007   22.4876 C   0  0  0  0  0  0  0  0  0  0  0  0
   19.3977   19.1021   23.2208 H   0  0  0  0  0  0  0  0  0  0  0  0
   20.3166   17.7210   22.6186 H   0  0  0  0  0  0  0  0  0  0  0  0
   21.4750   19.5525   22.7716 C   0  0  0  0  0  0  0  0  0  0  0  0
   21.3359   20.6375   22.6775 H   0  0  0  0  0  0  0  0  0  0  0  0
   21.8277   19.3431   23.7900 H   0  0  0  0  0  0  0  0  0  0  0  0
   22.2621   19.2453   22.0705 H   0  0  0  0  0  0  0  0  0  0  0  0
  1  2  1  0  0  0  0
  1  3  2  0  0  0  0
  1  4  1  0  0  0  0
  4  5  1  0  0  0  0
  4  6  1  0  0  0  0
  4  7  1  0  0  0  0
  7  8  1  0  0  0  0
  7  9  1  0  0  0  0
  7 10  1  0  0  0  0
 10 11  1  0  0  0  0
 10 12  1  0  0  0  0
 10 13  1  0  0  0  0
M  END
> <VConfSearch Rank>
733

> <Conf_Id>
0

> <Delta U+W>
0.000

> <U+W>
-58.332

> <U>
8.390

> <W>
-66.722

> <W(PB)>
-68.455

> <W(SA)>
1.733

> <Valence>
6.333

> <Coulomb>
1.215

> <VdW>
0.842

> <VdW6>
-3.344

> <VdW12>
4.186

> <Bond>
0.091

> <Angle>
2.713

> <Pdih>
3.529

> <Idih>
0.000

> <Tether>
0.000

$$$$
VeraChem MOL file


 13 12  0  0  0  0  0  0  0  0999 V2000     
   19.6779   19.2927   23.9054 C   0  0  0  0  0  0  0  0  0  0  0  0
   20.1012   20.3245   24.3867 O   0  5  0  0  0  0  0  0  0  0  0  0
   19.5005   18.2765   24.5466 O   0  0  0  0  0  0  0  0  0  0  0  0
   19.3705   19.2663   22.4120 C   0  0  0  0  0  0  0  0  0  0  0  0
   19.0288   20.2657   22.1161 H   0  0  0  0  0  0  0  0  0  0  0  0
   18.5335   18.5767   22.2479 H   0  0  0  0  0  0  0  0  0  0  0  0
   20.5860   18.8427   21.5524 C   0  0  0  0  0  0  0  0  0  0  0  0
   21.4209   19.5343   21.7323 H   0  0  0  0  0  0  0  0  0  0  0  0
   20.9254   17.8450   21.8641 H   0  0  0  0  0  0  0  0  0  0  0  0
   20.2430   18.8261   20.0492 C   0  0  0  0  0  0  0  0  0  0  0  0
   21.1163   18.5237   19.4566 H   0  0  0  0  0  0  0  0  0  0  0  0
   19.4297   18.1188   19.8397 H   0  0  0  0  0  0  0  0  0  0  0  0
   19.9291   19.8210   19.7070 H   0  0  0  0  0  0  0  0  0  0  0  0
  1  2  1  0  0  0  0
  1  3  2  0  0  0  0
  1  4  1  0  0  0  0
  4  5  1  0  0  0  0
  4  6  1  0  0  0  0
  4  7  1  0  0  0  0
  7  8  1  0  0  0  0
  7  9  1  0  0  0  0
  7 10  1  0  0  0  0
 10 11  1  0  0  0  0
 10 12  1  0  0  0  0
 10 13  1  0  0  0  0
M  END
> <VConfSearch Rank>
734

> <Conf_Id>
1

> <Delta U+W>
-1.339

> <U+W>
-59.672

> <U>
7.389

> <W>
-67.061

> <W(PB)>
-68.767

> <W(SA)>
1.707

> <Valence>
5.822

> <Coulomb>
1.255

> <VdW>
0.312

> <VdW6>
-3.061

> <VdW12>
3.372

> <Bond>
0.059

> <Angle>
2.241

> <Pdih>
3.522

> <Idih>
0.000

> <Tether>
0.000

$$$$
VeraChem MOL file


 13 12  0  0  0  0  0  0  0  0999 V2000     
   21.0922   17.9817   20.8552 C   0  0  0  0  0  0  0  0  0  0  0  0
   21.1369   18.3832   19.7094 O   0  5  0  0  0  0  0  0  0  0  0  0
   22.0475   17.5061   21.4358 O   0  0  0  0  0  0  0  0  0  0  0  0
   19.7552   18.0465   21.5895 C   0  0  0  0  0  0  0  0  0  0  0  0
   19.7973   17.3752   22.4560 H   0  0  0  0  0  0  0  0  0  0  0  0
   18.9913   17.6437   20.9139 H   0  0  0  0  0  0  0  0  0  0  0  0
   19.3462   19.4728   22.0384 C   0  0  0  0  0  0  0  0  0  0  0  0
   19.3473   20.1462   21.1698 H   0  0  0  0  0  0  0  0  0  0  0  0
   18.3156   19.4490   22.4179 H   0  0  0  0  0  0  0  0  0  0  0  0
   20.2741   20.0355   23.1350 C   0  0  0  0  0  0  0  0  0  0  0  0
   21.3082   20.1151   22.7743 H   0  0  0  0  0  0  0  0  0  0  0  0
   19.9457   21.0365   23.4435 H   0  0  0  0  0  0  0  0  0  0  0  0
   20.2706   19.3884   24.0220 H   0  0  0  0  0  0  0  0  0  0  0  0
  1  2  1  0  0  0  0
  1  3  2  0  0  0  0
  1  4  1  0  0  0  0
  4  5  1  0  0  0  0
  4  6  1  0  0  0  0
  4  7  1  0  0  0  0
  7  8  1  0  0  0  0
  7  9  1  0  0  0  0
  7 10  1  0  0  0  0
 10 11  1  0  0  0  0
 10 12  1  0  0  0  0
 10 13  1  0  0  0  0
M  END
> <VConfSearch Rank>
735

> <Conf_Id>
4

> <Delta U+W>
0.281

> <U+W>
-58.051

> <U>
9.781

> <W>
-67.832

> <W(PB)>
-69.535

> <W(SA)>
1.703

> <Valence>
6.123

> <Coulomb>
3.449

> <VdW>
0.209

> <VdW6>
-3.762

> <VdW12>
3.972

> <Bond>
0.078

> <Angle>
2.428

> <Pdih>
3.616

> <Idih>
0.002

> <Tether>
0.000

$$$$
VeraChem MOL file


 13 12  0  0  0  0  0  0  0  0999 V2000     
   20.3097   18.7976   20.2234 C   0  0  0  0  0  0  0  0  0  0  0  0
   20.1821   17.6309   19.9100 O   0  5  0  0  0  0  0  0  0  0  0  0
   19.8953   19.7208   19.5509 O   0  0  0  0  0  0  0  0  0  0  0  0
   21.0611   19.1252   21.5114 C   0  0  0  0  0  0  0  0  0  0  0  0
   21.7927   19.9065   21.2735 H   0  0  0  0  0  0  0  0  0  0  0  0
   21.6315   18.2405   21.8201 H   0  0  0  0  0  0  0  0  0  0  0  0
   20.1522   19.6060   22.6716 C   0  0  0  0  0  0  0  0  0  0  0  0
   20.7820   19.9601   23.4991 H   0  0  0  0  0  0  0  0  0  0  0  0
   19.5551   20.4665   22.3385 H   0  0  0  0  0  0  0  0  0  0  0  0
   19.2181   18.4930   23.1899 C   0  0  0  0  0  0  0  0  0  0  0  0
   19.7959   17.6312   23.5487 H   0  0  0  0  0  0  0  0  0  0  0  0
   18.6036   18.8601   24.0221 H   0  0  0  0  0  0  0  0  0  0  0  0
   18.5417   18.1448   22.3980 H   0  0  0  0  0  0  0  0  0  0  0  0
  1  2  1  0  0  0  0
  1  3  2  0  0  0  0
  1  4  1  0  0  0  0
  4  5  1  0  0  0  0
  4  6  1  0  0  0  0
  4  7  1  0  0  0  0
  7  8  1  0  0  0  0
  7  9  1  0  0  0  0
  7 10  1  0  0  0  0
 10 11  1  0  0  0  0
 10 12  1  0  0  0  0
 10 13  1  0  0  0  0
M  END
> <VConfSearch Rank>
736

> <Conf_Id>
36

> <Delta U+W>
0.272

> <U+W>
-58.060

> <U>
9.781

> <W>
-67.841

> <W(PB)>
-69.537

> <W(SA)>
1.696

> <Valence>
6.123

> <Coulomb>
3.449

> <VdW>
0.209

> <VdW6>
-3.762

> <VdW12>
3.972

> <Bond>
0.078

> <Angle>
2.428

> <Pdih>
3.616

> <Idih>
0.002

> <Tether>
0.000

$$$$
VeraChem MOL file


 13 12  0  0  0  0  0  0  0  0999 V2000     
   20.2113   17.7156   23.5121 C   0  0  0  0  0  0  0  0  0  0  0  0
   19.7043   18.4128   24.3690 O   0  5  0  0  0  0  0  0  0  0  0  0
   20.6550   16.6079   23.7379 O   0  0  0  0  0  0  0  0  0  0  0  0
   20.3101   18.2285   22.0741 C   0  0  0  0  0  0  0  0  0  0  0  0
   19.7940   17.5050   21.4319 H   0  0  0  0  0  0  0  0  0  0  0  0
   21.3693   18.2093   21.7914 H   0  0  0  0  0  0  0  0  0  0  0  0
   19.7307   19.6471   21.8334 C   0  0  0  0  0  0  0  0  0  0  0  0
   18.6700   19.6650   22.1201 H   0  0  0  0  0  0  0  0  0  0  0  0
   20.2472   20.3702   22.4801 H   0  0  0  0  0  0  0  0  0  0  0  0
   19.8742   20.0784   20.3599 C   0  0  0  0  0  0  0  0  0  0  0  0
   19.3396   19.3877   19.6945 H   0  0  0  0  0  0  0  0  0  0  0  0
   19.4592   21.0835   20.2092 H   0  0  0  0  0  0  0  0  0  0  0  0
   20.9295   20.0985   20.0574 H   0  0  0  0  0  0  0  0  0  0  0  0
  1  2  1  0  0  0  0
  1  3  2  0  0  0  0
  1  4  1  0  0  0  0
  4  5  1  0  0  0  0
  4  6  1  0  0  0  0
  4  7  1  0  0  0  0
  7  8  1  0  0  0  0
  7  9  1  0  0  0  0
  7 10  1  0  0  0  0
 10 11  1  0  0  0  0
 10 12  1  0  0  0  0
 10 13  1  0  0  0  0
M  END
> <VConfSearch Rank>
737

> <Conf_Id>
0

> <Delta U+W>
0.000

> <U+W>
-58.332

> <U>
8.390

> <W>
-66.722

> <W(PB)>
-68.455

> <W(SA)>
1.733

> <Valence>
6.333

> <Coulomb>
1.215

> <VdW>
0.842

> <VdW6>
-3.344

> <VdW12>
4.186

> <Bond>
0.091

> <Angle>
2.713

> <Pdih>
3.529

> <Idih>
0.000

> <Tether>
0.000

$$$$
VeraChem MOL file


 13 12  0  0  0  0  0  0  0  0999 V2000     
   17.9126   18.8854   21.4812 C   0  0  0  0  0  0  0  0  0  0  0  0
   17.3101   19.9346   21.3733 O   0  5  0  0  0  0  0  0  0  0  0  0
   17.3896   17.8432   21.8215 O   0  0  0  0  0  0  0  0  0  0  0  0
   19.4098   18.8803   21.1919 C   0  0  0  0  0  0  0  0  0  0  0  0
   19.6091   19.6236   20.4103 H   0  0  0  0  0  0  0  0  0  0  0  0
   19.6746   17.8989   20.7799 H   0  0  0  0  0  0  0  0  0  0  0  0
   20.2681   19.1813   22.4444 C   0  0  0  0  0  0  0  0  0  0  0  0
   19.9874   20.1618   22.8540 H   0  0  0  0  0  0  0  0  0  0  0  0
   20.0531   18.4368   23.2236 H   0  0  0  0  0  0  0  0  0  0  0  0
   21.7752   19.1690   22.1190 C   0  0  0  0  0  0  0  0  0  0  0  0
   22.3668   19.3842   23.0185 H   0  0  0  0  0  0  0  0  0  0  0  0
   22.0862   18.1884   21.7354 H   0  0  0  0  0  0  0  0  0  0  0  0
   22.0200   19.9266   21.3630 H   0  0  0  0  0  0  0  0  0  0  0  0
  1  2  1  0  0  0  0
  1  3  2  0  0  0  0
  1  4  1  0  0  0  0
  4  5  1  0  0  0  0
  4  6  1  0  0  0  0
  4  7  1  0  0  0  0
  7  8  1  0  0  0  0
  7  9  1  0  0  0  0
  7 10  1  0  0  0  0
 10 11  1  0  0  0  0
 10 12  1  0  0  0  0
 10 13  1  0  0  0  0
M  END
> <VConfSearch Rank>
738

> <Conf_Id>
1

> <Delta U+W>
-1.339

> <U+W>
-59.672

> <U>
7.389

> <W>
-67.061

> <W(PB)>
-68.767

> <W(SA)>
1.707

> <Valence>
5.822

> <Coulomb>
1.255

> <VdW>
0.312

> <VdW6>
-3.061

> <VdW12>
3.372

> <Bond>
0.059

> <Angle>
2.241

> <Pdih>
3.522

> <Idih>
0.000

> <Tether>
0.000

$$$$
VeraChem MOL file


 13 12  0  0  0  0  0  0  0  0999 V2000     
   18.8021   17.7685   21.8488 C   0  0  0  0  0  0  0  0  0  0  0  0
   18.6690   17.0031   22.7829 O   0  5  0  0  0  0  0  0  0  0  0  0
   17.8678   18.2646   21.2513 O   0  0  0  0  0  0  0  0  0  0  0  0
   20.2182   18.0942   21.3806 C   0  0  0  0  0  0  0  0  0  0  0  0
   20.1657   18.5163   20.3695 H   0  0  0  0  0  0  0  0  0  0  0  0
   20.7622   17.1456   21.2997 H   0  0  0  0  0  0  0  0  0  0  0  0
   20.9923   19.0540   22.3202 C   0  0  0  0  0  0  0  0  0  0  0  0
   21.0034   18.6416   23.3390 H   0  0  0  0  0  0  0  0  0  0  0  0
   22.0391   19.1123   21.9920 H   0  0  0  0  0  0  0  0  0  0  0  0
   20.3904   20.4742   22.3395 C   0  0  0  0  0  0  0  0  0  0  0  0
   19.3553   20.4593   22.7060 H   0  0  0  0  0  0  0  0  0  0  0  0
   20.9725   21.1322   22.9978 H   0  0  0  0  0  0  0  0  0  0  0  0
   20.3902   20.9141   21.3336 H   0  0  0  0  0  0  0  0  0  0  0  0
  1  2  1  0  0  0  0
  1  3  2  0  0  0  0
  1  4  1  0  0  0  0
  4  5  1  0  0  0  0
  4  6  1  0  0  0  0
  4  7  1  0  0  0  0
  7  8  1  0  0  0  0
  7  9  1  0  0  0  0
  7 10  1  0  0  0  0
 10 11  1  0  0  0  0
 10 12  1  0  0  0  0
 10 13  1  0  0  0  0
M  END
> <VConfSearch Rank>
739

> <Conf_Id>
4

> <Delta U+W>
0.281

> <U+W>
-58.051

> <U>
9.781

> <W>
-67.832

> <W(PB)>
-69.535

> <W(SA)>
1.703

> <Valence>
6.123

> <Coulomb>
3.449

> <VdW>
0.209

> <VdW6>
-3.762

> <VdW12>
3.972

> <Bond>
0.078

> <Angle>
2.428

> <Pdih>
3.616

> <Idih>
0.002

> <Tether>
0.000

$$$$
VeraChem MOL file


 13 12  0  0  0  0  0  0  0  0999 V2000     
   20.8379   18.7967   23.6282 C   0  0  0  0  0  0  0  0  0  0  0  0
   22.0350   18.9946   23.5674 O   0  5  0  0  0  0  0  0  0  0  0  0
   20.1454   19.1602   24.5579 O   0  0  0  0  0  0  0  0  0  0  0  0
   20.1724   18.0193   22.4953 C   0  0  0  0  0  0  0  0  0  0  0  0
   19.5465   17.2445   22.9539 H   0  0  0  0  0  0  0  0  0  0  0  0
   20.9497   17.4999   21.9214 H   0  0  0  0  0  0  0  0  0  0  0  0
   19.3048   18.8911   21.5515 C   0  0  0  0  0  0  0  0  0  0  0  0
   18.7493   18.2364   20.8662 H   0  0  0  0  0  0  0  0  0  0  0  0
   18.5563   19.4386   22.1414 H   0  0  0  0  0  0  0  0  0  0  0  0
   20.1471   19.8858   20.7263 C   0  0  0  0  0  0  0  0  0  0  0  0
   20.8877   19.3574   20.1117 H   0  0  0  0  0  0  0  0  0  0  0  0
   19.5058   20.4724   20.0557 H   0  0  0  0  0  0  0  0  0  0  0  0
   20.6832   20.5864   21.3801 H   0  0  0  0  0  0  0  0  0  0  0  0
  1  2  1  0  0  0  0
  1  3  2  0  0  0  0
  1  4  1  0  0  0  0
  4  5  1  0  0  0  0
  4  6  1  0  0  0  0
  4  7  1  0  0  0  0
  7  8  1  0  0  0  0
  7  9  1  0  0  0  0
  7 10  1  0  0  0  0
 10 11  1  0  0  0  0
 10 12  1  0  0  0  0
 10 13  1  0  0  0  0
M  END
> <VConfSearch Rank>
740

> <Conf_Id>
36

> <Delta U+W>
0.272

> <U+W>
-58.060

> <U>
9.781

> <W>
-67.841

> <W(PB)>
-69.537

> <W(SA)>
1.696

> <Valence>
6.123

> <Coulomb>
3.449

> <VdW>
0.209

> <VdW6>
-3.762

> <VdW12>
3.972

> <Bond>
0.078

> <Angle>
2.428

> <Pdih>
3.616

> <Idih>
0.002

> <Tether>
0.000

$$$$
VeraChem MOL file


 13 12  0  0  0  0  0  0  0  0999 V2000     
   21.3198   17.3689   21.3713 C   0  0  0  0  0  0  0  0  0  0  0  0
   21.9885   17.8642   20.4854 O   0  5  0  0  0  0  0  0  0  0  0  0
   21.4847   16.2331   21.7681 O   0  0  0  0  0  0  0  0  0  0  0  0
   20.2119   18.1879   22.0365 C   0  0  0  0  0  0  0  0  0  0  0  0
   20.4271   18.2183   23.1112 H   0  0  0  0  0  0  0  0  0  0  0  0
   19.2746   17.6323   21.9132 H   0  0  0  0  0  0  0  0  0  0  0  0
   20.0381   19.6319   21.4974 C   0  0  0  0  0  0  0  0  0  0  0  0
   20.9792   20.1860   21.6192 H   0  0  0  0  0  0  0  0  0  0  0  0
   19.8254   19.5993   20.4197 H   0  0  0  0  0  0  0  0  0  0  0  0
   18.9019   20.3785   22.2251 C   0  0  0  0  0  0  0  0  0  0  0  0
   19.1061   20.4518   23.3014 H   0  0  0  0  0  0  0  0  0  0  0  0
   18.7941   21.3973   21.8304 H   0  0  0  0  0  0  0  0  0  0  0  0
   17.9430   19.8603   22.0922 H   0  0  0  0  0  0  0  0  0  0  0  0
  1  2  1  0  0  0  0
  1  3  2  0  0  0  0
  1  4  1  0  0  0  0
  4  5  1  0  0  0  0
  4  6  1  0  0  0  0
  4  7  1  0  0  0  0
  7  8  1  0  0  0  0
  7  9  1  0  0  0  0
  7 10  1  0  0  0  0
 10 11  1  0  0  0  0
 10 12  1  0  0  0  0
 10 13  1  0  0  0  0
M  END
> <VConfSearch Rank>
741

> <Conf_Id>
0

> <Delta U+W>
0.000

> <U+W>
-58.332

> <U>
8.390

> <W>
-66.722

> <W(PB)>
-68.455

> <W(SA)>
1.733

> <Valence>
6.333

> <Coulomb>
1.215

> <VdW>
0.842

> <VdW6>
-3.344

> <VdW12>
4.186

> <Bond>
0.091

> <Angle>
2.713

> <Pdih>
3.529

> <Idih>
0.000

> <Tether>
0.000

$$$$
VeraChem MOL file


 13 12  0  0  0  0  0  0  0  0999 V2000     
   19.9934   20.7915   23.0114 C   0  0  0  0  0  0  0  0  0  0  0  0
   21.0023   20.9994   23.6550 O   0  5  0  0  0  0  0  0  0  0  0  0
   18.9033   21.2364   23.3101 O   0  0  0  0  0  0  0  0  0  0  0  0
   20.0974   19.9089   21.7722 C   0  0  0  0  0  0  0  0  0  0  0  0
   21.0878   20.0617   21.3263 H   0  0  0  0  0  0  0  0  0  0  0  0
   19.3569   20.2571   21.0419 H   0  0  0  0  0  0  0  0  0  0  0  0
   19.8774   18.4078   22.0793 C   0  0  0  0  0  0  0  0  0  0  0  0
   20.6181   18.0727   22.8189 H   0  0  0  0  0  0  0  0  0  0  0  0
   18.8868   18.2682   22.5342 H   0  0  0  0  0  0  0  0  0  0  0  0
   19.9890   17.5434   20.8074 C   0  0  0  0  0  0  0  0  0  0  0  0
   19.8302   16.4835   21.0451 H   0  0  0  0  0  0  0  0  0  0  0  0
   19.2378   17.8403   20.0637 H   0  0  0  0  0  0  0  0  0  0  0  0
   20.9824   17.6433   20.3505 H   0  0  0  0  0  0  0  0  0  0  0  0
  1  2  1  0  0  0  0
  1  3  2  0  0  0  0
  1  4  1  0  0  0  0
  4  5  1  0  0  0  0
  4  6  1  0  0  0  0
  4  7  1  0  0  0  0
  7  8  1  0  0  0  0
  7  9  1  0  0  0  0
  7 10  1  0  0  0  0
 10 11  1  0  0  0  0
 10 12  1  0  0  0  0
 10 13  1  0  0  0  0
M  END
> <VConfSearch Rank>
742

> <Conf_Id>
1

> <Delta U+W>
-1.339

> <U+W>
-59.672

> <U>
7.389

> <W>
-67.061

> <W(PB)>
-68.767

> <W(SA)>
1.707

> <Valence>
5.822

> <Coulomb>
1.255

> <VdW>
0.312

> <VdW6>
-3.061

> <VdW12>
3.372

> <Bond>
0.059

> <Angle>
2.241

> <Pdih>
3.522

> <Idih>
0.000

> <Tether>
0.000

$$$$
VeraChem MOL file


 13 12  0  0  0  0  0  0  0  0999 V2000     
   21.6453   19.8486   21.6444 C   0  0  0  0  0  0  0  0  0  0  0  0
   22.4397   19.9290   22.5601 O   0  5  0  0  0  0  0  0  0  0  0  0
   21.9710   19.6530   20.4905 O   0  0  0  0  0  0  0  0  0  0  0  0
   20.1633   20.0394   21.9577 C   0  0  0  0  0  0  0  0  0  0  0  0
   19.6317   20.2570   21.0232 H   0  0  0  0  0  0  0  0  0  0  0  0
   20.0746   20.9325   22.5877 H   0  0  0  0  0  0  0  0  0  0  0  0
   19.5064   18.8336   22.6773 C   0  0  0  0  0  0  0  0  0  0  0  0
   20.0711   18.5981   23.5903 H   0  0  0  0  0  0  0  0  0  0  0  0
   18.4931   19.1133   22.9963 H   0  0  0  0  0  0  0  0  0  0  0  0
   19.4244   17.5827   21.7782 C   0  0  0  0  0  0  0  0  0  0  0  0
   20.4255   17.2477   21.4757 H   0  0  0  0  0  0  0  0  0  0  0  0
   18.9374   16.7551   22.3102 H   0  0  0  0  0  0  0  0  0  0  0  0
   18.8446   17.7901   20.8692 H   0  0  0  0  0  0  0  0  0  0  0  0
  1  2  1  0  0  0  0
  1  3  2  0  0  0  0
  1  4  1  0  0  0  0
  4  5  1  0  0  0  0
  4  6  1  0  0  0  0
  4  7  1  0  0  0  0
  7  8  1  0  0  0  0
  7  9  1  0  0  0  0
  7 10  1  0  0  0  0
 10 11  1  0  0  0  0
 10 12  1  0  0  0  0
 10 13  1  0  0  0  0
M  END
> <VConfSearch Rank>
743

> <Conf_Id>
4

> <Delta U+W>
0.281

> <U+W>
-58.051

> <U>
9.781

> <W>
-67.832

> <W(PB)>
-69.535

> <W(SA)>
1.703

> <Valence>
6.123

> <Coulomb>
3.449

> <VdW>
0.209

> <VdW6>
-3.762

> <VdW12>
3.972

> <Bond>
0.078

> <Angle>
2.428

> <Pdih>
3.616

> <Idih>
0.002

> <Tether>
0.000

$$$$
VeraChem MOL file


 13 12  0  0  0  0  0  0  0  0999 V2000     
   19.2133   17.4454   21.7211 C   0  0  0  0  0  0  0  0  0  0  0  0
   18.4310   17.2653   22.6329 O   0  5  0  0  0  0  0  0  0  0  0  0
   18.9656   17.1746   20.5629 O   0  0  0  0  0  0  0  0  0  0  0  0
   20.5939   18.0081   22.0498 C   0  0  0  0  0  0  0  0  0  0  0  0
   21.3333   17.3793   21.5396 H   0  0  0  0  0  0  0  0  0  0  0  0
   20.7718   17.8960   23.1264 H   0  0  0  0  0  0  0  0  0  0  0  0
   20.7941   19.4860   21.6266 C   0  0  0  0  0  0  0  0  0  0  0  0
   21.8498   19.7589   21.7605 H   0  0  0  0  0  0  0  0  0  0  0  0
   20.5732   19.5949   20.5555 H   0  0  0  0  0  0  0  0  0  0  0  0
   19.9153   20.4576   22.4412 C   0  0  0  0  0  0  0  0  0  0  0  0
   20.1359   20.3808   23.5140 H   0  0  0  0  0  0  0  0  0  0  0  0
   20.0954   21.4950   22.1308 H   0  0  0  0  0  0  0  0  0  0  0  0
   18.8485   20.2414   22.2956 H   0  0  0  0  0  0  0  0  0  0  0  0
  1  2  1  0  0  0  0
  1  3  2  0  0  0  0
  1  4  1  0  0  0  0
  4  5  1  0  0  0  0
  4  6  1  0  0  0  0
  4  7  1  0  0  0  0
  7  8  1  0  0  0  0
  7  9  1  0  0  0  0
  7 10  1  0  0  0  0
 10 11  1  0  0  0  0
 10 12  1  0  0  0  0
 10 13  1  0  0  0  0
M  END
> <VConfSearch Rank>
744

> <Conf_Id>
36

> <Delta U+W>
0.272

> <U+W>
-58.060

> <U>
9.781

> <W>
-67.841

> <W(PB)>
-69.537

> <W(SA)>
1.696

> <Valence>
6.123

> <Coulomb>
3.449

> <VdW>
0.209

> <VdW6>
-3.762

> <VdW12>
3.972

> <Bond>
0.078

> <Angle>
2.428

> <Pdih>
3.616

> <Idih>
0.002

> <Tether>
0.000

$$$$
VeraChem MOL file


 13 12  0  0  0  0  0  0  0  0999 V2000     
   17.9031   19.0787   22.0423 C   0  0  0  0  0  0  0  0  0  0  0  0
   17.6900   20.2156   21.6689 O   0  5  0  0  0  0  0  0  0  0  0  0
   17.0226   18.3271   22.4093 O   0  0  0  0  0  0  0  0  0  0  0  0
   19.3351   18.5406   22.0629 C   0  0  0  0  0  0  0  0  0  0  0  0
   19.3562   17.6410   21.4363 H   0  0  0  0  0  0  0  0  0  0  0  0
   19.5503   18.2208   23.0895 H   0  0  0  0  0  0  0  0  0  0  0  0
   20.4256   19.5352   21.5861 C   0  0  0  0  0  0  0  0  0  0  0  0
   20.2065   19.8566   20.5582 H   0  0  0  0  0  0  0  0  0  0  0  0
   20.4008   20.4372   22.2134 H   0  0  0  0  0  0  0  0  0  0  0  0
   21.8328   18.9070   21.6413 C   0  0  0  0  0  0  0  0  0  0  0  0
   21.8926   18.0199   20.9970 H   0  0  0  0  0  0  0  0  0  0  0  0
   22.5902   19.6249   21.3006 H   0  0  0  0  0  0  0  0  0  0  0  0
   22.0884   18.6051   22.6655 H   0  0  0  0  0  0  0  0  0  0  0  0
  1  2  1  0  0  0  0
  1  3  2  0  0  0  0
  1  4  1  0  0  0  0
  4  5  1  0  0  0  0
  4  6  1  0  0  0  0
  4  7  1  0  0  0  0
  7  8  1  0  0  0  0
  7  9  1  0  0  0  0
  7 10  1  0  0  0  0
 10 11  1  0  0  0  0
 10 12  1  0  0  0  0
 10 13  1  0  0  0  0
M  END
> <VConfSearch Rank>
745

> <Conf_Id>
0

> <Delta U+W>
0.000

> <U+W>
-58.332

> <U>
8.390

> <W>
-66.722

> <W(PB)>
-68.455

> <W(SA)>
1.733

> <Valence>
6.333

> <Coulomb>
1.215

> <VdW>
0.842

> <VdW6>
-3.344

> <VdW12>
4.186

> <Bond>
0.091

> <Angle>
2.713

> <Pdih>
3.529

> <Idih>
0.000

> <Tether>
0.000

$$$$
VeraChem MOL file


 13 12  0  0  0  0  0  0  0  0999 V2000     
   21.7021   18.7786   20.6241 C   0  0  0  0  0  0  0  0  0  0  0  0
   22.5603   18.0418   21.0669 O   0  5  0  0  0  0  0  0  0  0  0  0
   21.9240   19.6573   19.8155 O   0  0  0  0  0  0  0  0  0  0  0  0
   20.2723   18.6030   21.1246 C   0  0  0  0  0  0  0  0  0  0  0  0
   20.1146   17.5394   21.3411 H   0  0  0  0  0  0  0  0  0  0  0  0
   19.5898   18.8717   20.3091 H   0  0  0  0  0  0  0  0  0  0  0  0
   19.9630   19.4538   22.3802 C   0  0  0  0  0  0  0  0  0  0  0  0
   20.6588   19.1833   23.1867 H   0  0  0  0  0  0  0  0  0  0  0  0
   20.1338   20.5157   22.1545 H   0  0  0  0  0  0  0  0  0  0  0  0
   18.5116   19.2541   22.8606 C   0  0  0  0  0  0  0  0  0  0  0  0
   18.3114   19.8648   23.7507 H   0  0  0  0  0  0  0  0  0  0  0  0
   17.7960   19.5466   22.0809 H   0  0  0  0  0  0  0  0  0  0  0  0
   18.3251   18.2039   23.1211 H   0  0  0  0  0  0  0  0  0  0  0  0
  1  2  1  0  0  0  0
  1  3  2  0  0  0  0
  1  4  1  0  0  0  0
  4  5  1  0  0  0  0
  4  6  1  0  0  0  0
  4  7  1  0  0  0  0
  7  8  1  0  0  0  0
  7  9  1  0  0  0  0
  7 10  1  0  0  0  0
 10 11  1  0  0  0  0
 10 12  1  0  0  0  0
 10 13  1  0  0  0  0
M  END
> <VConfSearch Rank>
746

> <Conf_Id>
1

> <Delta U+W>
-1.339

> <U+W>
-59.672

> <U>
7.389

> <W>
-67.061

> <W(PB)>
-68.767

> <W(SA)>
1.707

> <Valence>
5.822

> <Coulomb>
1.255

> <VdW>
0.312

> <VdW6>
-3.061

> <VdW12>
3.372

> <Bond>
0.059

> <Angle>
2.241

> <Pdih>
3.522

> <Idih>
0.000

> <Tether>
0.000

$$$$
VeraChem MOL file


 13 12  0  0  0  0  0  0  0  0999 V2000     
   18.6531   19.9160   21.6171 C   0  0  0  0  0  0  0  0  0  0  0  0
   17.6368   19.2745   21.4389 O   0  5  0  0  0  0  0  0  0  0  0  0
   18.6820   20.9713   22.2183 O   0  0  0  0  0  0  0  0  0  0  0  0
   19.9545   19.3835   21.0225 C   0  0  0  0  0  0  0  0  0  0  0  0
   20.6851   20.2010   20.9872 H   0  0  0  0  0  0  0  0  0  0  0  0
   19.7473   19.0990   19.9840 H   0  0  0  0  0  0  0  0  0  0  0  0
   20.5486   18.1690   21.7811 C   0  0  0  0  0  0  0  0  0  0  0  0
   19.7948   17.3719   21.8467 H   0  0  0  0  0  0  0  0  0  0  0  0
   21.3900   17.7610   21.2044 H   0  0  0  0  0  0  0  0  0  0  0  0
   21.0399   18.5393   23.1958 C   0  0  0  0  0  0  0  0  0  0  0  0
   20.2133   18.9104   23.8161 H   0  0  0  0  0  0  0  0  0  0  0  0
   21.4718   17.6633   23.6969 H   0  0  0  0  0  0  0  0  0  0  0  0
   21.8109   19.3198   23.1517 H   0  0  0  0  0  0  0  0  0  0  0  0
  1  2  1  0  0  0  0
  1  3  2  0  0  0  0
  1  4  1  0  0  0  0
  4  5  1  0  0  0  0
  4  6  1  0  0  0  0
  4  7  1  0  0  0  0
  7  8  1  0  0  0  0
  7  9  1  0  0  0  0
  7 10  1  0  0  0  0
 10 11  1  0  0  0  0
 10 12  1  0  0  0  0
 10 13  1  0  0  0  0
M  END
> <VConfSearch Rank>
747

> <Conf_Id>
4

> <Delta U+W>
0.281

> <U+W>
-58.051

> <U>
9.781

> <W>
-67.832

> <W(PB)>
-69.535

> <W(SA)>
1.703

> <Valence>
6.123

> <Coulomb>
3.449

> <VdW>
0.209

> <VdW6>
-3.762

> <VdW12>
3.972

> <Bond>
0.078

> <Angle>
2.428

> <Pdih>
3.616

> <Idih>
0.002

> <Tether>
0.000

$$$$
VeraChem MOL file


 13 12  0  0  0  0  0  0  0  0999 V2000     
   18.7475   17.8302   22.1987 C   0  0  0  0  0  0  0  0  0  0  0  0
   18.2254   18.0092   23.2809 O   0  5  0  0  0  0  0  0  0  0  0  0
   18.1245   17.5615   21.1909 O   0  0  0  0  0  0  0  0  0  0  0  0
   20.2692   17.9112   22.1047 C   0  0  0  0  0  0  0  0  0  0  0  0
   20.6105   17.0251   21.5563 H   0  0  0  0  0  0  0  0  0  0  0  0
   20.6881   17.8386   23.1159 H   0  0  0  0  0  0  0  0  0  0  0  0
   20.7943   19.1880   21.3996 C   0  0  0  0  0  0  0  0  0  0  0  0
   21.8774   19.0926   21.2422 H   0  0  0  0  0  0  0  0  0  0  0  0
   20.3368   19.2728   20.4039 H   0  0  0  0  0  0  0  0  0  0  0  0
   20.5143   20.4689   22.2125 C   0  0  0  0  0  0  0  0  0  0  0  0
   20.9820   20.4144   23.2043 H   0  0  0  0  0  0  0  0  0  0  0  0
   20.9154   21.3505   21.6957 H   0  0  0  0  0  0  0  0  0  0  0  0
   19.4356   20.6202   22.3514 H   0  0  0  0  0  0  0  0  0  0  0  0
  1  2  1  0  0  0  0
  1  3  2  0  0  0  0
  1  4  1  0  0  0  0
  4  5  1  0  0  0  0
  4  6  1  0  0  0  0
  4  7  1  0  0  0  0
  7  8  1  0  0  0  0
  7  9  1  0  0  0  0
  7 10  1  0  0  0  0
 10 11  1  0  0  0  0
 10 12  1  0  0  0  0
 10 13  1  0  0  0  0
M  END
> <VConfSearch Rank>
748

> <Conf_Id>
36

> <Delta U+W>
0.272

> <U+W>
-58.060

> <U>
9.781

> <W>
-67.841

> <W(PB)>
-69.537

> <W(SA)>
1.696

> <Valence>
6.123

> <Coulomb>
3.449

> <VdW>
0.209

> <VdW6>
-3.762

> <VdW12>
3.972

> <Bond>
0.078

> <Angle>
2.428

> <Pdih>
3.616

> <Idih>
0.002

> <Tether>
0.000

$$$$
VeraChem MOL file


 13 12  0  0  0  0  0  0  0  0999 V2000     
   18.5062   18.2906   20.5004 C   0  0  0  0  0  0  0  0  0  0  0  0
   19.1840   17.9896   19.5374 O   0  5  0  0  0  0  0  0  0  0  0  0
   17.2997   18.1552   20.5282 O   0  0  0  0  0  0  0  0  0  0  0  0
   19.1737   18.8692   21.7495 C   0  0  0  0  0  0  0  0  0  0  0  0
   18.9119   18.2184   22.5922 H   0  0  0  0  0  0  0  0  0  0  0  0
   18.7143   19.8456   21.9441 H   0  0  0  0  0  0  0  0  0  0  0  0
   20.7150   19.0239   21.6680 C   0  0  0  0  0  0  0  0  0  0  0  0
   21.1732   18.0448   21.4700 H   0  0  0  0  0  0  0  0  0  0  0  0
   20.9754   19.6740   20.8211 H   0  0  0  0  0  0  0  0  0  0  0  0
   21.2977   19.6127   22.9686 C   0  0  0  0  0  0  0  0  0  0  0  0
   21.0774   18.9643   23.8268 H   0  0  0  0  0  0  0  0  0  0  0  0
   22.3881   19.7147   22.8921 H   0  0  0  0  0  0  0  0  0  0  0  0
   20.8779   20.6065   23.1726 H   0  0  0  0  0  0  0  0  0  0  0  0
  1  2  1  0  0  0  0
  1  3  2  0  0  0  0
  1  4  1  0  0  0  0
  4  5  1  0  0  0  0
  4  6  1  0  0  0  0
  4  7  1  0  0  0  0
  7  8  1  0  0  0  0
  7  9  1  0  0  0  0
  7 10  1  0  0  0  0
 10 11  1  0  0  0  0
 10 12  1  0  0  0  0
 10 13  1  0  0  0  0
M  END
> <VConfSearch Rank>
749

> <Conf_Id>
0

> <Delta U+W>
0.000

> <U+W>
-58.332

> <U>
8.390

> <W>
-66.722

> <W(PB)>
-68.455

> <W(SA)>
1.733

> <Valence>
6.333

> <Coulomb>
1.215

> <VdW>
0.842

> <VdW6>
-3.344

> <VdW12>
4.186

> <Bond>
0.091

> <Angle>
2.713

> <Pdih>
3.529

> <Idih>
0.000

> <Tether>
0.000

$$$$
VeraChem MOL file


 13 12  0  0  0  0  0  0  0  0999 V2000     
   21.1383   20.5356   22.7818 C   0  0  0  0  0  0  0  0  0  0  0  0
   21.4784   20.3026   23.9244 O   0  5  0  0  0  0  0  0  0  0  0  0
   21.0334   21.6576   22.3285 O   0  0  0  0  0  0  0  0  0  0  0  0
   20.8072   19.3566   21.8731 C   0  0  0  0  0  0  0  0  0  0  0  0
   21.4456   18.5128   22.1623 H   0  0  0  0  0  0  0  0  0  0  0  0
   21.0786   19.6302   20.8462 H   0  0  0  0  0  0  0  0  0  0  0  0
   19.3169   18.9436   21.9380 C   0  0  0  0  0  0  0  0  0  0  0  0
   19.0540   18.6814   22.9724 H   0  0  0  0  0  0  0  0  0  0  0  0
   18.6870   19.7989   21.6560 H   0  0  0  0  0  0  0  0  0  0  0  0
   19.0150   17.7505   21.0093 C   0  0  0  0  0  0  0  0  0  0  0  0
   17.9546   17.4726   21.0690 H   0  0  0  0  0  0  0  0  0  0  0  0
   19.2420   17.9990   19.9642 H   0  0  0  0  0  0  0  0  0  0  0  0
   19.6118   16.8729   21.2907 H   0  0  0  0  0  0  0  0  0  0  0  0
  1  2  1  0  0  0  0
  1  3  2  0  0  0  0
  1  4  1  0  0  0  0
  4  5  1  0  0  0  0
  4  6  1  0  0  0  0
  4  7  1  0  0  0  0
  7  8  1  0  0  0  0
  7  9  1  0  0  0  0
  7 10  1  0  0  0  0
 10 11  1  0  0  0  0
 10 12  1  0  0  0  0
 10 13  1  0  0  0  0
M  END
> <VConfSearch Rank>
750

> <Conf_Id>
1

> <Delta U+W>
-1.339

> <U+W>
-59.672

> <U>
7.389

> <W>
-67.061

> <W(PB)>
-68.767

> <W(SA)>
1.707

> <Valence>
5.822

> <Coulomb>
1.255

> <VdW>
0.312

> <VdW6>
-3.061

> <VdW12>
3.372

> <Bond>
0.059

> <Angle>
2.241

> <Pdih>
3.522

> <Idih>
0.000

> <Tether>
0.000

$$$$
VeraChem MOL file


 13 12  0  0  0  0  0  0  0  0999 V2000     
   21.5934   19.9889   21.8862 C   0  0  0  0  0  0  0  0  0  0  0  0
   22.0842   20.0991   20.7803 O   0  5  0  0  0  0  0  0  0  0  0  0
   21.5111   20.9077   22.6768 O   0  0  0  0  0  0  0  0  0  0  0  0
   21.0870   18.6142   22.3158 C   0  0  0  0  0  0  0  0  0  0  0  0
   20.9810   18.6042   23.4076 H   0  0  0  0  0  0  0  0  0  0  0  0
   21.8678   17.8856   22.0668 H   0  0  0  0  0  0  0  0  0  0  0  0
   19.7544   18.1911   21.6461 C   0  0  0  0  0  0  0  0  0  0  0  0
   19.8589   18.2444   20.5533 H   0  0  0  0  0  0  0  0  0  0  0  0
   19.5455   17.1410   21.8923 H   0  0  0  0  0  0  0  0  0  0  0  0
   18.5638   19.0613   22.0987 C   0  0  0  0  0  0  0  0  0  0  0  0
   18.7191   20.1142   21.8281 H   0  0  0  0  0  0  0  0  0  0  0  0
   17.6344   18.7234   21.6221 H   0  0  0  0  0  0  0  0  0  0  0  0
   18.4276   19.0048   23.1867 H   0  0  0  0  0  0  0  0  0  0  0  0
  1  2  1  0  0  0  0
  1  3  2  0  0  0  0
  1  4  1  0  0  0  0
  4  5  1  0  0  0  0
  4  6  1  0  0  0  0
  4  7  1  0  0  0  0
  7  8  1  0  0  0  0
  7  9  1  0  0  0  0
  7 10  1  0  0  0  0
 10 11  1  0  0  0  0
 10 12  1  0  0  0  0
 10 13  1  0  0  0  0
M  END
> <VConfSearch Rank>
751

> <Conf_Id>
4

> <Delta U+W>
0.281

> <U+W>
-58.051

> <U>
9.781

> <W>
-67.832

> <W(PB)>
-69.535

> <W(SA)>
1.703

> <Valence>
6.123

> <Coulomb>
3.449

> <VdW>
0.209

> <VdW6>
-3.762

> <VdW12>
3.972

> <Bond>
0.078

> <Angle>
2.428

> <Pdih>
3.616

> <Idih>
0.002

> <Tether>
0.000

$$$$
VeraChem MOL file


 13 12  0  0  0  0  0  0  0  0999 V2000     
   19.5451   17.3719   22.5768 C   0  0  0  0  0  0  0  0  0  0  0  0
   20.4103   16.5386   22.3952 O   0  5  0  0  0  0  0  0  0  0  0  0
   18.8247   17.3870   23.5550 O   0  0  0  0  0  0  0  0  0  0  0  0
   19.3258   18.4360   21.5042 C   0  0  0  0  0  0  0  0  0  0  0  0
   18.2490   18.4788   21.3014 H   0  0  0  0  0  0  0  0  0  0  0  0
   19.8098   18.1053   20.5770 H   0  0  0  0  0  0  0  0  0  0  0  0
   19.8329   19.8472   21.8972 C   0  0  0  0  0  0  0  0  0  0  0  0
   19.5021   20.5721   21.1409 H   0  0  0  0  0  0  0  0  0  0  0  0
   19.3736   20.1514   22.8482 H   0  0  0  0  0  0  0  0  0  0  0  0
   21.3697   19.9101   22.0172 C   0  0  0  0  0  0  0  0  0  0  0  0
   21.8490   19.6310   21.0697 H   0  0  0  0  0  0  0  0  0  0  0  0
   21.6962   20.9256   22.2767 H   0  0  0  0  0  0  0  0  0  0  0  0
   21.7329   19.2283   22.7976 H   0  0  0  0  0  0  0  0  0  0  0  0
  1  2  1  0  0  0  0
  1  3  2  0  0  0  0
  1  4  1  0  0  0  0
  4  5  1  0  0  0  0
  4  6  1  0  0  0  0
  4  7  1  0  0  0  0
  7  8  1  0  0  0  0
  7  9  1  0  0  0  0
  7 10  1  0  0  0  0
 10 11  1  0  0  0  0
 10 12  1  0  0  0  0
 10 13  1  0  0  0  0
M  END
> <VConfSearch Rank>
752

> <Conf_Id>
36

> <Delta U+W>
0.272

> <U+W>
-58.060

> <U>
9.781

> <W>
-67.841

> <W(PB)>
-69.537

> <W(SA)>
1.696

> <Valence>
6.123

> <Coulomb>
3.449

> <VdW>
0.209

> <VdW6>
-3.762

> <VdW12>
3.972

> <Bond>
0.078

> <Angle>
2.428

> <Pdih>
3.616

> <Idih>
0.002

> <Tether>
0.000

$$$$
VeraChem MOL file


 13 12  0  0  0  0  0  0  0  0999 V2000     
   18.2387   19.9080   21.0845 C   0  0  0  0  0  0  0  0  0  0  0  0
   17.8729   20.5011   22.0804 O   0  5  0  0  0  0  0  0  0  0  0  0
   17.6270   19.9362   20.0358 O   0  0  0  0  0  0  0  0  0  0  0  0
   19.5241   19.0791   21.1220 C   0  0  0  0  0  0  0  0  0  0  0  0
   20.1865   19.4660   20.3384 H   0  0  0  0  0  0  0  0  0  0  0  0
   19.2605   18.0527   20.8405 H   0  0  0  0  0  0  0  0  0  0  0  0
   20.2712   19.0726   22.4813 C   0  0  0  0  0  0  0  0  0  0  0  0
   20.5318   20.1024   22.7630 H   0  0  0  0  0  0  0  0  0  0  0  0
   19.6047   18.6874   23.2657 H   0  0  0  0  0  0  0  0  0  0  0  0
   21.5507   18.2139   22.4239 C   0  0  0  0  0  0  0  0  0  0  0  0
   22.2479   18.5977   21.6675 H   0  0  0  0  0  0  0  0  0  0  0  0
   22.0651   18.2214   23.3937 H   0  0  0  0  0  0  0  0  0  0  0  0
   21.3133   17.1713   22.1742 H   0  0  0  0  0  0  0  0  0  0  0  0
  1  2  1  0  0  0  0
  1  3  2  0  0  0  0
  1  4  1  0  0  0  0
  4  5  1  0  0  0  0
  4  6  1  0  0  0  0
  4  7  1  0  0  0  0
  7  8  1  0  0  0  0
  7  9  1  0  0  0  0
  7 10  1  0  0  0  0
 10 11  1  0  0  0  0
 10 12  1  0  0  0  0
 10 13  1  0  0  0  0
M  END
> <VConfSearch Rank>
753

> <Conf_Id>
0

> <Delta U+W>
0.000

> <U+W>
-58.332

> <U>
8.390

> <W>
-66.722

> <W(PB)>
-68.455

> <W(SA)>
1.733

> <Valence>
6.333

> <Coulomb>
1.215

> <VdW>
0.842

> <VdW6>
-3.344

> <VdW12>
4.186

> <Bond>
0.091

> <Angle>
2.713

> <Pdih>
3.529

> <Idih>
0.000

> <Tether>
0.000

$$$$
VeraChem MOL file


 13 12  0  0  0  0  0  0  0  0999 V2000     
   19.6506   20.8081   22.9355 C   0  0  0  0  0  0  0  0  0  0  0  0
   19.6136   20.6848   24.1433 O   0  5  0  0  0  0  0  0  0  0  0  0
   19.1086   21.7153   22.3368 O   0  0  0  0  0  0  0  0  0  0  0  0
   20.4020   19.7568   22.1258 C   0  0  0  0  0  0  0  0  0  0  0  0
   21.2430   19.3967   22.7308 H   0  0  0  0  0  0  0  0  0  0  0  0
   20.8266   20.2466   21.2410 H   0  0  0  0  0  0  0  0  0  0  0  0
   19.5061   18.5690   21.6987 C   0  0  0  0  0  0  0  0  0  0  0  0
   19.0787   18.0926   22.5920 H   0  0  0  0  0  0  0  0  0  0  0  0
   18.6622   18.9426   21.1019 H   0  0  0  0  0  0  0  0  0  0  0  0
   20.2945   17.5249   20.8828 C   0  0  0  0  0  0  0  0  0  0  0  0
   19.6431   16.6913   20.5894 H   0  0  0  0  0  0  0  0  0  0  0  0
   20.7070   17.9710   19.9683 H   0  0  0  0  0  0  0  0  0  0  0  0
   21.1266   17.1145   21.4699 H   0  0  0  0  0  0  0  0  0  0  0  0
  1  2  1  0  0  0  0
  1  3  2  0  0  0  0
  1  4  1  0  0  0  0
  4  5  1  0  0  0  0
  4  6  1  0  0  0  0
  4  7  1  0  0  0  0
  7  8  1  0  0  0  0
  7  9  1  0  0  0  0
  7 10  1  0  0  0  0
 10 11  1  0  0  0  0
 10 12  1  0  0  0  0
 10 13  1  0  0  0  0
M  END
> <VConfSearch Rank>
754

> <Conf_Id>
1

> <Delta U+W>
-1.339

> <U+W>
-59.672

> <U>
7.389

> <W>
-67.061

> <W(PB)>
-68.767

> <W(SA)>
1.707

> <Valence>
5.822

> <Coulomb>
1.255

> <VdW>
0.312

> <VdW6>
-3.061

> <VdW12>
3.372

> <Bond>
0.059

> <Angle>
2.241

> <Pdih>
3.522

> <Idih>
0.000

> <Tether>
0.000

$$$$
VeraChem MOL file


 13 12  0  0  0  0  0  0  0  0999 V2000     
   19.0947   17.9391   20.9527 C   0  0  0  0  0  0  0  0  0  0  0  0
   18.6292   16.9459   21.4752 O   0  5  0  0  0  0  0  0  0  0  0  0
   18.4769   18.6384   20.1747 O   0  0  0  0  0  0  0  0  0  0  0  0
   20.5438   18.3049   21.2641 C   0  0  0  0  0  0  0  0  0  0  0  0
   20.9026   19.0025   20.4975 H   0  0  0  0  0  0  0  0  0  0  0  0
   21.1406   17.3904   21.1643 H   0  0  0  0  0  0  0  0  0  0  0  0
   20.7566   18.9079   22.6764 C   0  0  0  0  0  0  0  0  0  0  0  0
   20.3565   18.2198   23.4342 H   0  0  0  0  0  0  0  0  0  0  0  0
   21.8341   18.9988   22.8702 H   0  0  0  0  0  0  0  0  0  0  0  0
   20.0980   20.2942   22.8318 C   0  0  0  0  0  0  0  0  0  0  0  0
   19.0110   20.2331   22.6880 H   0  0  0  0  0  0  0  0  0  0  0  0
   20.2840   20.7007   23.8344 H   0  0  0  0  0  0  0  0  0  0  0  0
   20.5002   21.0044   22.0974 H   0  0  0  0  0  0  0  0  0  0  0  0
  1  2  1  0  0  0  0
  1  3  2  0  0  0  0
  1  4  1  0  0  0  0
  4  5  1  0  0  0  0
  4  6  1  0  0  0  0
  4  7  1  0  0  0  0
  7  8  1  0  0  0  0
  7  9  1  0  0  0  0
  7 10  1  0  0  0  0
 10 11  1  0  0  0  0
 10 12  1  0  0  0  0
 10 13  1  0  0  0  0
M  END
> <VConfSearch Rank>
755

> <Conf_Id>
4

> <Delta U+W>
0.281

> <U+W>
-58.051

> <U>
9.781

> <W>
-67.832

> <W(PB)>
-69.535

> <W(SA)>
1.703

> <Valence>
6.123

> <Coulomb>
3.449

> <VdW>
0.209

> <VdW6>
-3.762

> <VdW12>
3.972

> <Bond>
0.078

> <Angle>
2.428

> <Pdih>
3.616

> <Idih>
0.002

> <Tether>
0.000

$$$$
VeraChem MOL file


 13 12  0  0  0  0  0  0  0  0999 V2000     
   20.9471   20.5308   22.2783 C   0  0  0  0  0  0  0  0  0  0  0  0
   20.9192   20.7992   23.4628 O   0  5  0  0  0  0  0  0  0  0  0  0
   21.8988   20.7660   21.5607 O   0  0  0  0  0  0  0  0  0  0  0  0
   19.7090   19.8974   21.6484 C   0  0  0  0  0  0  0  0  0  0  0  0
   19.4869   20.4557   20.7311 H   0  0  0  0  0  0  0  0  0  0  0  0
   18.8569   20.0448   22.3232 H   0  0  0  0  0  0  0  0  0  0  0  0
   19.8683   18.3928   21.3103 C   0  0  0  0  0  0  0  0  0  0  0  0
   18.9971   18.0603   20.7295 H   0  0  0  0  0  0  0  0  0  0  0  0
   20.7487   18.2514   20.6679 H   0  0  0  0  0  0  0  0  0  0  0  0
   19.9977   17.5147   22.5721 C   0  0  0  0  0  0  0  0  0  0  0  0
   19.1168   17.6240   23.2183 H   0  0  0  0  0  0  0  0  0  0  0  0
   20.0888   16.4554   22.2986 H   0  0  0  0  0  0  0  0  0  0  0  0
   20.8859   17.7908   23.1558 H   0  0  0  0  0  0  0  0  0  0  0  0
  1  2  1  0  0  0  0
  1  3  2  0  0  0  0
  1  4  1  0  0  0  0
  4  5  1  0  0  0  0
  4  6  1  0  0  0  0
  4  7  1  0  0  0  0
  7  8  1  0  0  0  0
  7  9  1  0  0  0  0
  7 10  1  0  0  0  0
 10 11  1  0  0  0  0
 10 12  1  0  0  0  0
 10 13  1  0  0  0  0
M  END
> <VConfSearch Rank>
756

> <Conf_Id>
36

> <Delta U+W>
0.272

> <U+W>
-58.060

> <U>
9.781

> <W>
-67.841

> <W(PB)>
-69.537

> <W(SA)>
1.696

> <Valence>
6.123

> <Coulomb>
3.449

> <VdW>
0.209

> <VdW6>
-3.762

> <VdW12>
3.972

> <Bond>
0.078

> <Angle>
2.428

> <Pdih>
3.616

> <Idih>
0.002

> <Tether>
0.000

$$$$
VeraChem MOL file


 13 12  0  0  0  0  0  0  0  0999 V2000     
   20.9377   17.0920   22.0792 C   0  0  0  0  0  0  0  0  0  0  0  0
   21.5765   17.2958   23.0930 O   0  5  0  0  0  0  0  0  0  0  0  0
   20.9383   16.0243   21.5006 O   0  0  0  0  0  0  0  0  0  0  0  0
   20.0844   18.2115   21.4799 C   0  0  0  0  0  0  0  0  0  0  0  0
   19.0536   17.8422   21.4213 H   0  0  0  0  0  0  0  0  0  0  0  0
   20.4270   18.3692   20.4503 H   0  0  0  0  0  0  0  0  0  0  0  0
   20.1146   19.5561   22.2524 C   0  0  0  0  0  0  0  0  0  0  0  0
   19.7737   19.3953   23.2847 H   0  0  0  0  0  0  0  0  0  0  0  0
   21.1488   19.9229   22.3126 H   0  0  0  0  0  0  0  0  0  0  0  0
   19.2280   20.6214   21.5764 C   0  0  0  0  0  0  0  0  0  0  0  0
   18.1818   20.2912   21.5320 H   0  0  0  0  0  0  0  0  0  0  0  0
   19.2621   21.5648   22.1367 H   0  0  0  0  0  0  0  0  0  0  0  0
   19.5679   20.8230   20.5520 H   0  0  0  0  0  0  0  0  0  0  0  0
  1  2  1  0  0  0  0
  1  3  2  0  0  0  0
  1  4  1  0  0  0  0
  4  5  1  0  0  0  0
  4  6  1  0  0  0  0
  4  7  1  0  0  0  0
  7  8  1  0  0  0  0
  7  9  1  0  0  0  0
  7 10  1  0  0  0  0
 10 11  1  0  0  0  0
 10 12  1  0  0  0  0
 10 13  1  0  0  0  0
M  END
> <VConfSearch Rank>
757

> <Conf_Id>
0

> <Delta U+W>
0.000

> <U+W>
-58.332

> <U>
8.390

> <W>
-66.722

> <W(PB)>
-68.455

> <W(SA)>
1.733

> <Valence>
6.333

> <Coulomb>
1.215

> <VdW>
0.842

> <VdW6>
-3.344

> <VdW12>
4.186

> <Bond>
0.091

> <Angle>
2.713

> <Pdih>
3.529

> <Idih>
0.000

> <Tether>
0.000

$$$$
VeraChem MOL file


 13 12  0  0  0  0  0  0  0  0999 V2000     
   18.9002   20.0174   20.3097 C   0  0  0  0  0  0  0  0  0  0  0  0
   19.0298   21.2237   20.2513 O   0  5  0  0  0  0  0  0  0  0  0  0
   17.9286   19.4256   19.8841 O   0  0  0  0  0  0  0  0  0  0  0  0
   20.0084   19.2040   20.9697 C   0  0  0  0  0  0  0  0  0  0  0  0
   20.9630   19.7089   20.7780 H   0  0  0  0  0  0  0  0  0  0  0  0
   20.0549   18.2261   20.4752 H   0  0  0  0  0  0  0  0  0  0  0  0
   19.7988   19.0214   22.4924 C   0  0  0  0  0  0  0  0  0  0  0  0
   19.7439   20.0070   22.9756 H   0  0  0  0  0  0  0  0  0  0  0  0
   18.8357   18.5237   22.6727 H   0  0  0  0  0  0  0  0  0  0  0  0
   20.9347   18.1958   23.1292 C   0  0  0  0  0  0  0  0  0  0  0  0
   20.7687   18.0772   24.2079 H   0  0  0  0  0  0  0  0  0  0  0  0
   20.9904   17.1943   22.6826 H   0  0  0  0  0  0  0  0  0  0  0  0
   21.9055   18.6890   22.9878 H   0  0  0  0  0  0  0  0  0  0  0  0
  1  2  1  0  0  0  0
  1  3  2  0  0  0  0
  1  4  1  0  0  0  0
  4  5  1  0  0  0  0
  4  6  1  0  0  0  0
  4  7  1  0  0  0  0
  7  8  1  0  0  0  0
  7  9  1  0  0  0  0
  7 10  1  0  0  0  0
 10 11  1  0  0  0  0
 10 12  1  0  0  0  0
 10 13  1  0  0  0  0
M  END
> <VConfSearch Rank>
758

> <Conf_Id>
1

> <Delta U+W>
-1.339

> <U+W>
-59.672

> <U>
7.389

> <W>
-67.061

> <W(PB)>
-68.767

> <W(SA)>
1.707

> <Valence>
5.822

> <Coulomb>
1.255

> <VdW>
0.312

> <VdW6>
-3.061

> <VdW12>
3.372

> <Bond>
0.059

> <Angle>
2.241

> <Pdih>
3.522

> <Idih>
0.000

> <Tether>
0.000

$$$$
VeraChem MOL file


 13 12  0  0  0  0  0  0  0  0999 V2000     
   21.1121   19.8005   23.2393 C   0  0  0  0  0  0  0  0  0  0  0  0
   21.4922   19.1139   24.1668 O   0  5  0  0  0  0  0  0  0  0  0  0
   21.7993   20.6513   22.7104 O   0  0  0  0  0  0  0  0  0  0  0  0
   19.6834   19.6064   22.7375 C   0  0  0  0  0  0  0  0  0  0  0  0
   19.3963   20.4844   22.1461 H   0  0  0  0  0  0  0  0  0  0  0  0
   19.0278   19.5884   23.6163 H   0  0  0  0  0  0  0  0  0  0  0  0
   19.4717   18.3127   21.9099 C   0  0  0  0  0  0  0  0  0  0  0  0
   19.8009   17.4432   22.4960 H   0  0  0  0  0  0  0  0  0  0  0  0
   18.3978   18.1779   21.7212 H   0  0  0  0  0  0  0  0  0  0  0  0
   20.2200   18.3456   20.5613 C   0  0  0  0  0  0  0  0  0  0  0  0
   21.3038   18.4352   20.7134 H   0  0  0  0  0  0  0  0  0  0  0  0
   20.0334   17.4252   19.9928 H   0  0  0  0  0  0  0  0  0  0  0  0
   19.8896   19.1954   19.9497 H   0  0  0  0  0  0  0  0  0  0  0  0
  1  2  1  0  0  0  0
  1  3  2  0  0  0  0
  1  4  1  0  0  0  0
  4  5  1  0  0  0  0
  4  6  1  0  0  0  0
  4  7  1  0  0  0  0
  7  8  1  0  0  0  0
  7  9  1  0  0  0  0
  7 10  1  0  0  0  0
 10 11  1  0  0  0  0
 10 12  1  0  0  0  0
 10 13  1  0  0  0  0
M  END
> <VConfSearch Rank>
759

> <Conf_Id>
4

> <Delta U+W>
0.281

> <U+W>
-58.051

> <U>
9.781

> <W>
-67.832

> <W(PB)>
-69.535

> <W(SA)>
1.703

> <Valence>
6.123

> <Coulomb>
3.449

> <VdW>
0.209

> <VdW6>
-3.762

> <VdW12>
3.972

> <Bond>
0.078

> <Angle>
2.428

> <Pdih>
3.616

> <Idih>
0.002

> <Tether>
0.000

$$$$
VeraChem MOL file


 13 12  0  0  0  0  0  0  0  0999 V2000     
   19.5239   20.0826   20.7253 C   0  0  0  0  0  0  0  0  0  0  0  0
   19.3759   19.4723   19.6853 O   0  5  0  0  0  0  0  0  0  0  0  0
   18.7754   20.9648   21.0963 O   0  0  0  0  0  0  0  0  0  0  0  0
   20.7329   19.7500   21.5961 C   0  0  0  0  0  0  0  0  0  0  0  0
   21.2124   20.6986   21.8659 H   0  0  0  0  0  0  0  0  0  0  0  0
   21.4573   19.1895   20.9924 H   0  0  0  0  0  0  0  0  0  0  0  0
   20.3886   18.9612   22.8855 C   0  0  0  0  0  0  0  0  0  0  0  0
   21.2840   18.8984   23.5189 H   0  0  0  0  0  0  0  0  0  0  0  0
   19.6319   19.5115   23.4621 H   0  0  0  0  0  0  0  0  0  0  0  0
   19.8813   17.5352   22.5874 C   0  0  0  0  0  0  0  0  0  0  0  0
   20.6323   16.9599   22.0302 H   0  0  0  0  0  0  0  0  0  0  0  0
   19.6658   16.9983   23.5204 H   0  0  0  0  0  0  0  0  0  0  0  0
   18.9594   17.5608   21.9913 H   0  0  0  0  0  0  0  0  0  0  0  0
  1  2  1  0  0  0  0
  1  3  2  0  0  0  0
  1  4  1  0  0  0  0
  4  5  1  0  0  0  0
  4  6  1  0  0  0  0
  4  7  1  0  0  0  0
  7  8  1  0  0  0  0
  7  9  1  0  0  0  0
  7 10  1  0  0  0  0
 10 11  1  0  0  0  0
 10 12  1  0  0  0  0
 10 13  1  0  0  0  0
M  END
> <VConfSearch Rank>
760

> <Conf_Id>
36

> <Delta U+W>
0.272

> <U+W>
-58.060

> <U>
9.781

> <W>
-67.841

> <W(PB)>
-69.537

> <W(SA)>
1.696

> <Valence>
6.123

> <Coulomb>
3.449

> <VdW>
0.209

> <VdW6>
-3.762

> <VdW12>
3.972

> <Bond>
0.078

> <Angle>
2.428

> <Pdih>
3.616

> <Idih>
0.002

> <Tether>
0.000

$$$$
VeraChem MOL file


 13 12  0  0  0  0  0  0  0  0999 V2000     
   20.5860   17.0404   22.4431 C   0  0  0  0  0  0  0  0  0  0  0  0
   21.0275   16.6024   21.3987 O   0  5  0  0  0  0  0  0  0  0  0  0
   20.5526   16.3932   23.4701 O   0  0  0  0  0  0  0  0  0  0  0  0
   20.0398   18.4684   22.4986 C   0  0  0  0  0  0  0  0  0  0  0  0
   20.6033   19.0049   23.2713 H   0  0  0  0  0  0  0  0  0  0  0  0
   19.0007   18.4086   22.8435 H   0  0  0  0  0  0  0  0  0  0  0  0
   20.1029   19.2563   21.1640 C   0  0  0  0  0  0  0  0  0  0  0  0
   21.1447   19.3126   20.8187 H   0  0  0  0  0  0  0  0  0  0  0  0
   19.5402   18.7155   20.3903 H   0  0  0  0  0  0  0  0  0  0  0  0
   19.5322   20.6808   21.3161 C   0  0  0  0  0  0  0  0  0  0  0  0
   20.0982   21.2531   22.0629 H   0  0  0  0  0  0  0  0  0  0  0  0
   19.5853   21.2222   20.3626 H   0  0  0  0  0  0  0  0  0  0  0  0
   18.4808   20.6512   21.6311 H   0  0  0  0  0  0  0  0  0  0  0  0
  1  2  1  0  0  0  0
  1  3  2  0  0  0  0
  1  4  1  0  0  0  0
  4  5  1  0  0  0  0
  4  6  1  0  0  0  0
  4  7  1  0  0  0  0
  7  8  1  0  0  0  0
  7  9  1  0  0  0  0
  7 10  1  0  0  0  0
 10 11  1  0  0  0  0
 10 12  1  0  0  0  0
 10 13  1  0  0  0  0
M  END
> <VConfSearch Rank>
761

> <Conf_Id>
0

> <Delta U+W>
0.000

> <U+W>
-58.332

> <U>
8.390

> <W>
-66.722

> <W(PB)>
-68.455

> <W(SA)>
1.733

> <Valence>
6.333

> <Coulomb>
1.215

> <VdW>
0.842

> <VdW6>
-3.344

> <VdW12>
4.186

> <Bond>
0.091

> <Angle>
2.713

> <Pdih>
3.529

> <Idih>
0.000

> <Tether>
0.000

$$$$
VeraChem MOL file


 13 12  0  0  0  0  0  0  0  0999 V2000     
   19.9574   19.0571   19.7204 C   0  0  0  0  0  0  0  0  0  0  0  0
   18.8998   19.3592   19.2051 O   0  5  0  0  0  0  0  0  0  0  0  0
   20.8052   18.3851   19.1681 O   0  0  0  0  0  0  0  0  0  0  0  0
   20.2274   19.5311   21.1444 C   0  0  0  0  0  0  0  0  0  0  0  0
   19.7349   20.5017   21.2803 H   0  0  0  0  0  0  0  0  0  0  0  0
   21.3062   19.6984   21.2498 H   0  0  0  0  0  0  0  0  0  0  0  0
   19.7364   18.5298   22.2178 C   0  0  0  0  0  0  0  0  0  0  0  0
   18.6570   18.3623   22.0964 H   0  0  0  0  0  0  0  0  0  0  0  0
   20.2287   17.5590   22.0659 H   0  0  0  0  0  0  0  0  0  0  0  0
   20.0236   19.0376   23.6450 C   0  0  0  0  0  0  0  0  0  0  0  0
   19.6687   18.3149   24.3913 H   0  0  0  0  0  0  0  0  0  0  0  0
   21.1006   19.1842   23.8004 H   0  0  0  0  0  0  0  0  0  0  0  0
   19.5168   19.9937   23.8311 H   0  0  0  0  0  0  0  0  0  0  0  0
  1  2  1  0  0  0  0
  1  3  2  0  0  0  0
  1  4  1  0  0  0  0
  4  5  1  0  0  0  0
  4  6  1  0  0  0  0
  4  7  1  0  0  0  0
  7  8  1  0  0  0  0
  7  9  1  0  0  0  0
  7 10  1  0  0  0  0
 10 11  1  0  0  0  0
 10 12  1  0  0  0  0
 10 13  1  0  0  0  0
M  END
> <VConfSearch Rank>
762

> <Conf_Id>
1

> <Delta U+W>
-1.339

> <U+W>
-59.672

> <U>
7.389

> <W>
-67.061

> <W(PB)>
-68.767

> <W(SA)>
1.707

> <Valence>
5.822

> <Coulomb>
1.255

> <VdW>
0.312

> <VdW6>
-3.061

> <VdW12>
3.372

> <Bond>
0.059

> <Angle>
2.241

> <Pdih>
3.522

> <Idih>
0.000

> <Tether>
0.000

$$$$
VeraChem MOL file


 13 12  0  0  0  0  0  0  0  0999 V2000     
   21.8522   18.7684   21.5627 C   0  0  0  0  0  0  0  0  0  0  0  0
   22.5340   19.7728   21.6125 O   0  5  0  0  0  0  0  0  0  0  0  0
   22.2406   17.6767   21.9278 O   0  0  0  0  0  0  0  0  0  0  0  0
   20.4468   18.8801   20.9769 C   0  0  0  0  0  0  0  0  0  0  0  0
   20.0972   17.8757   20.7083 H   0  0  0  0  0  0  0  0  0  0  0  0
   20.5262   19.4482   20.0424 H   0  0  0  0  0  0  0  0  0  0  0  0
   19.4218   19.5693   21.9137 C   0  0  0  0  0  0  0  0  0  0  0  0
   19.8007   20.5576   22.2098 H   0  0  0  0  0  0  0  0  0  0  0  0
   18.4883   19.7419   21.3608 H   0  0  0  0  0  0  0  0  0  0  0  0
   19.1147   18.7307   23.1717 C   0  0  0  0  0  0  0  0  0  0  0  0
   20.0201   18.5757   23.7734 H   0  0  0  0  0  0  0  0  0  0  0  0
   18.3723   19.2370   23.8023 H   0  0  0  0  0  0  0  0  0  0  0  0
   18.7134   17.7460   22.8985 H   0  0  0  0  0  0  0  0  0  0  0  0
  1  2  1  0  0  0  0
  1  3  2  0  0  0  0
  1  4  1  0  0  0  0
  4  5  1  0  0  0  0
  4  6  1  0  0  0  0
  4  7  1  0  0  0  0
  7  8  1  0  0  0  0
  7  9  1  0  0  0  0
  7 10  1  0  0  0  0
 10 11  1  0  0  0  0
 10 12  1  0  0  0  0
 10 13  1  0  0  0  0
M  END
> <VConfSearch Rank>
763

> <Conf_Id>
4

> <Delta U+W>
0.281

> <U+W>
-58.051

> <U>
9.781

> <W>
-67.832

> <W(PB)>
-69.535

> <W(SA)>
1.703

> <Valence>
6.123

> <Coulomb>
3.449

> <VdW>
0.209

> <VdW6>
-3.762

> <VdW12>
3.972

> <Bond>
0.078

> <Angle>
2.428

> <Pdih>
3.616

> <Idih>
0.002

> <Tether>
0.000

$$$$
VeraChem MOL file


 13 12  0  0  0  0  0  0  0  0999 V2000     
   20.5116   20.4908   21.1388 C   0  0  0  0  0  0  0  0  0  0  0  0
   21.4280   21.0520   21.7056 O   0  5  0  0  0  0  0  0  0  0  0  0
   20.3832   20.4709   19.9308 O   0  0  0  0  0  0  0  0  0  0  0  0
   19.4446   19.8043   21.9879 C   0  0  0  0  0  0  0  0  0  0  0  0
   18.4675   20.1256   21.6079 H   0  0  0  0  0  0  0  0  0  0  0  0
   19.5219   20.1757   23.0172 H   0  0  0  0  0  0  0  0  0  0  0  0
   19.5202   18.2559   21.9720 C   0  0  0  0  0  0  0  0  0  0  0  0
   18.6354   17.8472   22.4788 H   0  0  0  0  0  0  0  0  0  0  0  0
   19.4836   17.8966   20.9340 H   0  0  0  0  0  0  0  0  0  0  0  0
   20.7902   17.7197   22.6645 C   0  0  0  0  0  0  0  0  0  0  0  0
   20.8354   18.0490   23.7109 H   0  0  0  0  0  0  0  0  0  0  0  0
   20.8028   16.6220   22.6531 H   0  0  0  0  0  0  0  0  0  0  0  0
   21.6966   18.0735   22.1555 H   0  0  0  0  0  0  0  0  0  0  0  0
  1  2  1  0  0  0  0
  1  3  2  0  0  0  0
  1  4  1  0  0  0  0
  4  5  1  0  0  0  0
  4  6  1  0  0  0  0
  4  7  1  0  0  0  0
  7  8  1  0  0  0  0
  7  9  1  0  0  0  0
  7 10  1  0  0  0  0
 10 11  1  0  0  0  0
 10 12  1  0  0  0  0
 10 13  1  0  0  0  0
M  END
> <VConfSearch Rank>
764

> <Conf_Id>
36

> <Delta U+W>
0.272

> <U+W>
-58.060

> <U>
9.781

> <W>
-67.841

> <W(PB)>
-69.537

> <W(SA)>
1.696

> <Valence>
6.123

> <Coulomb>
3.449

> <VdW>
0.209

> <VdW6>
-3.762

> <VdW12>
3.972

> <Bond>
0.078

> <Angle>
2.428

> <Pdih>
3.616

> <Idih>
0.002

> <Tether>
0.000

$$$$
VeraChem MOL file


 13 12  0  0  0  0  0  0  0  0999 V2000     
   20.4774   21.0806   21.9436 C   0  0  0  0  0  0  0  0  0  0  0  0
   20.0706   21.4534   20.8607 O   0  5  0  0  0  0  0  0  0  0  0  0
   20.9808   21.8308   22.7551 O   0  0  0  0  0  0  0  0  0  0  0  0
   20.3648   19.6050   22.3316 C   0  0  0  0  0  0  0  0  0  0  0  0
   19.7884   19.5541   23.2630 H   0  0  0  0  0  0  0  0  0  0  0  0
   21.3760   19.2483   22.5610 H   0  0  0  0  0  0  0  0  0  0  0  0
   19.7158   18.6850   21.2646 C   0  0  0  0  0  0  0  0  0  0  0  0
   18.7037   19.0458   21.0341 H   0  0  0  0  0  0  0  0  0  0  0  0
   20.2933   18.7398   20.3312 H   0  0  0  0  0  0  0  0  0  0  0  0
   19.6451   17.2206   21.7424 C   0  0  0  0  0  0  0  0  0  0  0  0
   19.0462   17.1346   22.6586 H   0  0  0  0  0  0  0  0  0  0  0  0
   19.1835   16.5855   20.9750 H   0  0  0  0  0  0  0  0  0  0  0  0
   20.6485   16.8261   21.9501 H   0  0  0  0  0  0  0  0  0  0  0  0
  1  2  1  0  0  0  0
  1  3  2  0  0  0  0
  1  4  1  0  0  0  0
  4  5  1  0  0  0  0
  4  6  1  0  0  0  0
  4  7  1  0  0  0  0
  7  8  1  0  0  0  0
  7  9  1  0  0  0  0
  7 10  1  0  0  0  0
 10 11  1  0  0  0  0
 10 12  1  0  0  0  0
 10 13  1  0  0  0  0
M  END
> <VConfSearch Rank>
765

> <Conf_Id>
0

> <Delta U+W>
0.000

> <U+W>
-58.332

> <U>
8.390

> <W>
-66.722

> <W(PB)>
-68.455

> <W(SA)>
1.733

> <Valence>
6.333

> <Coulomb>
1.215

> <VdW>
0.842

> <VdW6>
-3.344

> <VdW12>
4.186

> <Bond>
0.091

> <Angle>
2.713

> <Pdih>
3.529

> <Idih>
0.000

> <Tether>
0.000

$$$$
VeraChem MOL file


 13 12  0  0  0  0  0  0  0  0999 V2000     
   18.7718   20.0866   23.2036 C   0  0  0  0  0  0  0  0  0  0  0  0
   19.0490   21.2562   23.3788 O   0  5  0  0  0  0  0  0  0  0  0  0
   18.1806   19.4077   24.0190 O   0  0  0  0  0  0  0  0  0  0  0  0
   19.2058   19.4303   21.8973 C   0  0  0  0  0  0  0  0  0  0  0  0
   19.1793   20.1911   21.1077 H   0  0  0  0  0  0  0  0  0  0  0  0
   18.4632   18.6667   21.6356 H   0  0  0  0  0  0  0  0  0  0  0  0
   20.6155   18.7963   21.9790 C   0  0  0  0  0  0  0  0  0  0  0  0
   21.3492   19.5679   22.2513 H   0  0  0  0  0  0  0  0  0  0  0  0
   20.6329   18.0432   22.7792 H   0  0  0  0  0  0  0  0  0  0  0  0
   21.0245   18.1419   20.6441 C   0  0  0  0  0  0  0  0  0  0  0  0
   22.0257   17.6983   20.7216 H   0  0  0  0  0  0  0  0  0  0  0  0
   20.3216   17.3458   20.3654 H   0  0  0  0  0  0  0  0  0  0  0  0
   21.0435   18.8822   19.8334 H   0  0  0  0  0  0  0  0  0  0  0  0
  1  2  1  0  0  0  0
  1  3  2  0  0  0  0
  1  4  1  0  0  0  0
  4  5  1  0  0  0  0
  4  6  1  0  0  0  0
  4  7  1  0  0  0  0
  7  8  1  0  0  0  0
  7  9  1  0  0  0  0
  7 10  1  0  0  0  0
 10 11  1  0  0  0  0
 10 12  1  0  0  0  0
 10 13  1  0  0  0  0
M  END
> <VConfSearch Rank>
766

> <Conf_Id>
1

> <Delta U+W>
-1.339

> <U+W>
-59.672

> <U>
7.389

> <W>
-67.061

> <W(PB)>
-68.767

> <W(SA)>
1.707

> <Valence>
5.822

> <Coulomb>
1.255

> <VdW>
0.312

> <VdW6>
-3.061

> <VdW12>
3.372

> <Bond>
0.059

> <Angle>
2.241

> <Pdih>
3.522

> <Idih>
0.000

> <Tether>
0.000

$$$$
VeraChem MOL file


 13 12  0  0  0  0  0  0  0  0999 V2000     
   21.3554   20.2668   22.0958 C   0  0  0  0  0  0  0  0  0  0  0  0
   21.0698   21.3143   21.5505 O   0  5  0  0  0  0  0  0  0  0  0  0
   21.9301   20.2031   23.1642 O   0  0  0  0  0  0  0  0  0  0  0  0
   21.0044   18.9639   21.3817 C   0  0  0  0  0  0  0  0  0  0  0  0
   21.5940   18.1512   21.8235 H   0  0  0  0  0  0  0  0  0  0  0  0
   21.3326   19.0631   20.3401 H   0  0  0  0  0  0  0  0  0  0  0  0
   19.4959   18.6083   21.4152 C   0  0  0  0  0  0  0  0  0  0  0  0
   18.9116   19.4457   21.0086 H   0  0  0  0  0  0  0  0  0  0  0  0
   19.3143   17.7477   20.7569 H   0  0  0  0  0  0  0  0  0  0  0  0
   19.0007   18.2689   22.8363 C   0  0  0  0  0  0  0  0  0  0  0  0
   19.1264   19.1247   23.5129 H   0  0  0  0  0  0  0  0  0  0  0  0
   17.9357   18.0032   22.8217 H   0  0  0  0  0  0  0  0  0  0  0  0
   19.5572   17.4193   23.2533 H   0  0  0  0  0  0  0  0  0  0  0  0
  1  2  1  0  0  0  0
  1  3  2  0  0  0  0
  1  4  1  0  0  0  0
  4  5  1  0  0  0  0
  4  6  1  0  0  0  0
  4  7  1  0  0  0  0
  7  8  1  0  0  0  0
  7  9  1  0  0  0  0
  7 10  1  0  0  0  0
 10 11  1  0  0  0  0
 10 12  1  0  0  0  0
 10 13  1  0  0  0  0
M  END
> <VConfSearch Rank>
767

> <Conf_Id>
4

> <Delta U+W>
0.281

> <U+W>
-58.051

> <U>
9.781

> <W>
-67.832

> <W(PB)>
-69.535

> <W(SA)>
1.703

> <Valence>
6.123

> <Coulomb>
3.449

> <VdW>
0.209

> <VdW6>
-3.762

> <VdW12>
3.972

> <Bond>
0.078

> <Angle>
2.428

> <Pdih>
3.616

> <Idih>
0.002

> <Tether>
0.000

$$$$
VeraChem MOL file


 13 12  0  0  0  0  0  0  0  0999 V2000     
   20.6179   19.8563   23.4700 C   0  0  0  0  0  0  0  0  0  0  0  0
   21.3243   20.7946   23.1595 O   0  5  0  0  0  0  0  0  0  0  0  0
   19.8017   19.9014   24.3688 O   0  0  0  0  0  0  0  0  0  0  0  0
   20.7877   18.5395   22.7165 C   0  0  0  0  0  0  0  0  0  0  0  0
   20.8597   17.7414   23.4650 H   0  0  0  0  0  0  0  0  0  0  0  0
   21.7460   18.5608   22.1832 H   0  0  0  0  0  0  0  0  0  0  0  0
   19.6350   18.2192   21.7306 C   0  0  0  0  0  0  0  0  0  0  0  0
   19.7606   17.1963   21.3502 H   0  0  0  0  0  0  0  0  0  0  0  0
   18.6758   18.2411   22.2668 H   0  0  0  0  0  0  0  0  0  0  0  0
   19.5883   19.1978   20.5390 C   0  0  0  0  0  0  0  0  0  0  0  0
   20.5303   19.1754   19.9756 H   0  0  0  0  0  0  0  0  0  0  0  0
   18.7749   18.9317   19.8515 H   0  0  0  0  0  0  0  0  0  0  0  0
   19.4190   20.2277   20.8804 H   0  0  0  0  0  0  0  0  0  0  0  0
  1  2  1  0  0  0  0
  1  3  2  0  0  0  0
  1  4  1  0  0  0  0
  4  5  1  0  0  0  0
  4  6  1  0  0  0  0
  4  7  1  0  0  0  0
  7  8  1  0  0  0  0
  7  9  1  0  0  0  0
  7 10  1  0  0  0  0
 10 11  1  0  0  0  0
 10 12  1  0  0  0  0
 10 13  1  0  0  0  0
M  END
> <VConfSearch Rank>
768

> <Conf_Id>
36

> <Delta U+W>
0.272

> <U+W>
-58.060

> <U>
9.781

> <W>
-67.841

> <W(PB)>
-69.537

> <W(SA)>
1.696

> <Valence>
6.123

> <Coulomb>
3.449

> <VdW>
0.209

> <VdW6>
-3.762

> <VdW12>
3.972

> <Bond>
0.078

> <Angle>
2.428

> <Pdih>
3.616

> <Idih>
0.002

> <Tether>
0.000

$$$$
VeraChem MOL file


 13 12  0  0  0  0  0  0  0  0999 V2000     
   19.0438   19.0377   23.7151 C   0  0  0  0  0  0  0  0  0  0  0  0
   18.0324   19.6447   23.4221 O   0  5  0  0  0  0  0  0  0  0  0  0
   19.2712   18.6342   24.8377 O   0  0  0  0  0  0  0  0  0  0  0  0
   20.0978   18.7534   22.6432 C   0  0  0  0  0  0  0  0  0  0  0  0
   20.2411   17.6669   22.6045 H   0  0  0  0  0  0  0  0  0  0  0  0
   21.0427   19.1889   22.9891 H   0  0  0  0  0  0  0  0  0  0  0  0
   19.7644   19.2871   21.2255 C   0  0  0  0  0  0  0  0  0  0  0  0
   18.8157   18.8517   20.8819 H   0  0  0  0  0  0  0  0  0  0  0  0
   19.6183   20.3756   21.2669 H   0  0  0  0  0  0  0  0  0  0  0  0
   20.8806   18.9547   20.2148 C   0  0  0  0  0  0  0  0  0  0  0  0
   21.0251   17.8694   20.1319 H   0  0  0  0  0  0  0  0  0  0  0  0
   20.6272   19.3399   19.2185 H   0  0  0  0  0  0  0  0  0  0  0  0
   21.8341   19.4054   20.5200 H   0  0  0  0  0  0  0  0  0  0  0  0
  1  2  1  0  0  0  0
  1  3  2  0  0  0  0
  1  4  1  0  0  0  0
  4  5  1  0  0  0  0
  4  6  1  0  0  0  0
  4  7  1  0  0  0  0
  7  8  1  0  0  0  0
  7  9  1  0  0  0  0
  7 10  1  0  0  0  0
 10 11  1  0  0  0  0
 10 12  1  0  0  0  0
 10 13  1  0  0  0  0
M  END
> <VConfSearch Rank>
769

> <Conf_Id>
0

> <Delta U+W>
0.000

> <U+W>
-58.332

> <U>
8.390

> <W>
-66.722

> <W(PB)>
-68.455

> <W(SA)>
1.733

> <Valence>
6.333

> <Coulomb>
1.215

> <VdW>
0.842

> <VdW6>
-3.344

> <VdW12>
4.186

> <Bond>
0.091

> <Angle>
2.713

> <Pdih>
3.529

> <Idih>
0.000

> <Tether>
0.000

$$$$
VeraChem MOL file


 13 12  0  0  0  0  0  0  0  0999 V2000     
   20.7405   20.3358   23.3206 C   0  0  0  0  0  0  0  0  0  0  0  0
   21.1927   19.8027   24.3140 O   0  5  0  0  0  0  0  0  0  0  0  0
   20.3113   21.4719   23.3052 O   0  0  0  0  0  0  0  0  0  0  0  0
   20.6919   19.5287   22.0276 C   0  0  0  0  0  0  0  0  0  0  0  0
   21.5496   18.8451   22.0194 H   0  0  0  0  0  0  0  0  0  0  0  0
   20.8227   20.2216   21.1875 H   0  0  0  0  0  0  0  0  0  0  0  0
   19.3748   18.7328   21.8614 C   0  0  0  0  0  0  0  0  0  0  0  0
   19.2495   18.0496   22.7131 H   0  0  0  0  0  0  0  0  0  0  0  0
   18.5225   19.4264   21.8809 H   0  0  0  0  0  0  0  0  0  0  0  0
   19.3569   17.9284   20.5461 C   0  0  0  0  0  0  0  0  0  0  0  0
   18.4162   17.3714   20.4463 H   0  0  0  0  0  0  0  0  0  0  0  0
   19.4509   18.5936   19.6776 H   0  0  0  0  0  0  0  0  0  0  0  0
   20.1834   17.2062   20.5162 H   0  0  0  0  0  0  0  0  0  0  0  0
  1  2  1  0  0  0  0
  1  3  2  0  0  0  0
  1  4  1  0  0  0  0
  4  5  1  0  0  0  0
  4  6  1  0  0  0  0
  4  7  1  0  0  0  0
  7  8  1  0  0  0  0
  7  9  1  0  0  0  0
  7 10  1  0  0  0  0
 10 11  1  0  0  0  0
 10 12  1  0  0  0  0
 10 13  1  0  0  0  0
M  END
> <VConfSearch Rank>
770

> <Conf_Id>
1

> <Delta U+W>
-1.339

> <U+W>
-59.672

> <U>
7.389

> <W>
-67.061

> <W(PB)>
-68.767

> <W(SA)>
1.707

> <Valence>
5.822

> <Coulomb>
1.255

> <VdW>
0.312

> <VdW6>
-3.061

> <VdW12>
3.372

> <Bond>
0.059

> <Angle>
2.241

> <Pdih>
3.522

> <Idih>
0.000

> <Tether>
0.000

$$$$
VeraChem MOL file


 13 12  0  0  0  0  0  0  0  0999 V2000     
   20.7590   19.8105   20.5482 C   0  0  0  0  0  0  0  0  0  0  0  0
   21.2146   20.9213   20.7341 O   0  5  0  0  0  0  0  0  0  0  0  0
   21.2562   19.0009   19.7911 O   0  0  0  0  0  0  0  0  0  0  0  0
   19.4741   19.4274   21.2785 C   0  0  0  0  0  0  0  0  0  0  0  0
   19.0306   18.5585   20.7770 H   0  0  0  0  0  0  0  0  0  0  0  0
   18.7685   20.2578   21.1562 H   0  0  0  0  0  0  0  0  0  0  0  0
   19.6662   19.1321   22.7882 C   0  0  0  0  0  0  0  0  0  0  0  0
   20.1486   19.9925   23.2727 H   0  0  0  0  0  0  0  0  0  0  0  0
   18.6810   19.0155   23.2602 H   0  0  0  0  0  0  0  0  0  0  0  0
   20.4991   17.8581   23.0392 C   0  0  0  0  0  0  0  0  0  0  0  0
   21.5084   17.9571   22.6180 H   0  0  0  0  0  0  0  0  0  0  0  0
   20.5993   17.6672   24.1156 H   0  0  0  0  0  0  0  0  0  0  0  0
   20.0226   16.9812   22.5817 H   0  0  0  0  0  0  0  0  0  0  0  0
  1  2  1  0  0  0  0
  1  3  2  0  0  0  0
  1  4  1  0  0  0  0
  4  5  1  0  0  0  0
  4  6  1  0  0  0  0
  4  7  1  0  0  0  0
  7  8  1  0  0  0  0
  7  9  1  0  0  0  0
  7 10  1  0  0  0  0
 10 11  1  0  0  0  0
 10 12  1  0  0  0  0
 10 13  1  0  0  0  0
M  END
> <VConfSearch Rank>
771

> <Conf_Id>
4

> <Delta U+W>
0.281

> <U+W>
-58.051

> <U>
9.781

> <W>
-67.832

> <W(PB)>
-69.535

> <W(SA)>
1.703

> <Valence>
6.123

> <Coulomb>
3.449

> <VdW>
0.209

> <VdW6>
-3.762

> <VdW12>
3.972

> <Bond>
0.078

> <Angle>
2.428

> <Pdih>
3.616

> <Idih>
0.002

> <Tether>
0.000

$$$$
VeraChem MOL file


 13 12  0  0  0  0  0  0  0  0999 V2000     
   19.6121   20.2238   23.1708 C   0  0  0  0  0  0  0  0  0  0  0  0
   19.6164   21.3119   22.6305 O   0  5  0  0  0  0  0  0  0  0  0  0
   18.7794   19.8855   23.9884 O   0  0  0  0  0  0  0  0  0  0  0  0
   20.7309   19.2414   22.8333 C   0  0  0  0  0  0  0  0  0  0  0  0
   21.1242   18.8555   23.7813 H   0  0  0  0  0  0  0  0  0  0  0  0
   21.5485   19.7919   22.3518 H   0  0  0  0  0  0  0  0  0  0  0  0
   20.2860   18.0559   21.9389 C   0  0  0  0  0  0  0  0  0  0  0  0
   21.1059   17.3277   21.8726 H   0  0  0  0  0  0  0  0  0  0  0  0
   19.4400   17.5367   22.4106 H   0  0  0  0  0  0  0  0  0  0  0  0
   19.8942   18.5045   20.5159 C   0  0  0  0  0  0  0  0  0  0  0  0
   20.7338   19.0067   20.0176 H   0  0  0  0  0  0  0  0  0  0  0  0
   19.6038   17.6405   19.9041 H   0  0  0  0  0  0  0  0  0  0  0  0
   19.0458   19.2012   20.5412 H   0  0  0  0  0  0  0  0  0  0  0  0
  1  2  1  0  0  0  0
  1  3  2  0  0  0  0
  1  4  1  0  0  0  0
  4  5  1  0  0  0  0
  4  6  1  0  0  0  0
  4  7  1  0  0  0  0
  7  8  1  0  0  0  0
  7  9  1  0  0  0  0
  7 10  1  0  0  0  0
 10 11  1  0  0  0  0
 10 12  1  0  0  0  0
 10 13  1  0  0  0  0
M  END
> <VConfSearch Rank>
772

> <Conf_Id>
36

> <Delta U+W>
0.272

> <U+W>
-58.060

> <U>
9.781

> <W>
-67.841

> <W(PB)>
-69.537

> <W(SA)>
1.696

> <Valence>
6.123

> <Coulomb>
3.449

> <VdW>
0.209

> <VdW6>
-3.762

> <VdW12>
3.972

> <Bond>
0.078

> <Angle>
2.428

> <Pdih>
3.616

> <Idih>
0.002

> <Tether>
0.000

$$$$
VeraChem MOL file


 13 12  0  0  0  0  0  0  0  0999 V2000     
   20.4217   20.4981   23.2858 C   0  0  0  0  0  0  0  0  0  0  0  0
   19.4787   20.3242   24.0327 O   0  5  0  0  0  0  0  0  0  0  0  0
   21.2701   21.3456   23.4780 O   0  0  0  0  0  0  0  0  0  0  0  0
   20.5748   19.6260   22.0382 C   0  0  0  0  0  0  0  0  0  0  0  0
   21.5541   19.1364   22.0987 H   0  0  0  0  0  0  0  0  0  0  0  0
   20.6051   20.2967   21.1712 H   0  0  0  0  0  0  0  0  0  0  0  0
   19.4685   18.5581   21.8341 C   0  0  0  0  0  0  0  0  0  0  0  0
   19.4379   17.8888   22.7053 H   0  0  0  0  0  0  0  0  0  0  0  0
   18.4877   19.0505   21.7768 H   0  0  0  0  0  0  0  0  0  0  0  0
   19.7055   17.7298   20.5553 C   0  0  0  0  0  0  0  0  0  0  0  0
   20.6673   17.2021   20.6015 H   0  0  0  0  0  0  0  0  0  0  0  0
   18.9135   16.9802   20.4279 H   0  0  0  0  0  0  0  0  0  0  0  0
   19.7095   18.3731   19.6655 H   0  0  0  0  0  0  0  0  0  0  0  0
  1  2  1  0  0  0  0
  1  3  2  0  0  0  0
  1  4  1  0  0  0  0
  4  5  1  0  0  0  0
  4  6  1  0  0  0  0
  4  7  1  0  0  0  0
  7  8  1  0  0  0  0
  7  9  1  0  0  0  0
  7 10  1  0  0  0  0
 10 11  1  0  0  0  0
 10 12  1  0  0  0  0
 10 13  1  0  0  0  0
M  END
> <VConfSearch Rank>
773

> <Conf_Id>
0

> <Delta U+W>
0.000

> <U+W>
-58.332

> <U>
8.390

> <W>
-66.722

> <W(PB)>
-68.455

> <W(SA)>
1.733

> <Valence>
6.333

> <Coulomb>
1.215

> <VdW>
0.842

> <VdW6>
-3.344

> <VdW12>
4.186

> <Bond>
0.091

> <Angle>
2.713

> <Pdih>
3.529

> <Idih>
0.000

> <Tether>
0.000

$$$$
VeraChem MOL file


 13 12  0  0  0  0  0  0  0  0999 V2000     
   19.8387   19.5182   23.8834 C   0  0  0  0  0  0  0  0  0  0  0  0
   20.4982   20.4660   24.2603 O   0  5  0  0  0  0  0  0  0  0  0  0
   19.4753   18.6199   24.6159 O   0  0  0  0  0  0  0  0  0  0  0  0
   19.4626   19.4423   22.4075 C   0  0  0  0  0  0  0  0  0  0  0  0
   19.3326   20.4658   22.0353 H   0  0  0  0  0  0  0  0  0  0  0  0
   18.4890   18.9434   22.3285 H   0  0  0  0  0  0  0  0  0  0  0  0
   20.5151   18.6946   21.5536 C   0  0  0  0  0  0  0  0  0  0  0  0
   21.4879   19.1971   21.6483 H   0  0  0  0  0  0  0  0  0  0  0  0
   20.6440   17.6744   21.9415 H   0  0  0  0  0  0  0  0  0  0  0  0
   20.1060   18.6353   20.0682 C   0  0  0  0  0  0  0  0  0  0  0  0
   20.8638   18.1020   19.4794 H   0  0  0  0  0  0  0  0  0  0  0  0
   19.1496   18.1104   19.9448 H   0  0  0  0  0  0  0  0  0  0  0  0
   19.9999   19.6447   19.6494 H   0  0  0  0  0  0  0  0  0  0  0  0
  1  2  1  0  0  0  0
  1  3  2  0  0  0  0
  1  4  1  0  0  0  0
  4  5  1  0  0  0  0
  4  6  1  0  0  0  0
  4  7  1  0  0  0  0
  7  8  1  0  0  0  0
  7  9  1  0  0  0  0
  7 10  1  0  0  0  0
 10 11  1  0  0  0  0
 10 12  1  0  0  0  0
 10 13  1  0  0  0  0
M  END
> <VConfSearch Rank>
774

> <Conf_Id>
1

> <Delta U+W>
-1.339

> <U+W>
-59.672

> <U>
7.389

> <W>
-67.061

> <W(PB)>
-68.767

> <W(SA)>
1.707

> <Valence>
5.822

> <Coulomb>
1.255

> <VdW>
0.312

> <VdW6>
-3.061

> <VdW12>
3.372

> <Bond>
0.059

> <Angle>
2.241

> <Pdih>
3.522

> <Idih>
0.000

> <Tether>
0.000

$$$$
VeraChem MOL file


 13 12  0  0  0  0  0  0  0  0999 V2000     
   20.0449   19.0741   20.2101 C   0  0  0  0  0  0  0  0  0  0  0  0
   19.1791   18.4108   19.6748 O   0  5  0  0  0  0  0  0  0  0  0  0
   20.3438   20.1968   19.8551 O   0  0  0  0  0  0  0  0  0  0  0  0
   20.8206   18.4478   21.3663 C   0  0  0  0  0  0  0  0  0  0  0  0
   21.7449   19.0183   21.5192 H   0  0  0  0  0  0  0  0  0  0  0  0
   21.1187   17.4403   21.0524 H   0  0  0  0  0  0  0  0  0  0  0  0
   20.0221   18.3596   22.6922 C   0  0  0  0  0  0  0  0  0  0  0  0
   19.0792   17.8222   22.5186 H   0  0  0  0  0  0  0  0  0  0  0  0
   20.5945   17.7661   23.4182 H   0  0  0  0  0  0  0  0  0  0  0  0
   19.7270   19.7477   23.2971 C   0  0  0  0  0  0  0  0  0  0  0  0
   19.1168   20.3540   22.6146 H   0  0  0  0  0  0  0  0  0  0  0  0
   19.1789   19.6488   24.2431 H   0  0  0  0  0  0  0  0  0  0  0  0
   20.6578   20.2936   23.4993 H   0  0  0  0  0  0  0  0  0  0  0  0
  1  2  1  0  0  0  0
  1  3  2  0  0  0  0
  1  4  1  0  0  0  0
  4  5  1  0  0  0  0
  4  6  1  0  0  0  0
  4  7  1  0  0  0  0
  7  8  1  0  0  0  0
  7  9  1  0  0  0  0
  7 10  1  0  0  0  0
 10 11  1  0  0  0  0
 10 12  1  0  0  0  0
 10 13  1  0  0  0  0
M  END
> <VConfSearch Rank>
775

> <Conf_Id>
4

> <Delta U+W>
0.281

> <U+W>
-58.051

> <U>
9.781

> <W>
-67.832

> <W(PB)>
-69.535

> <W(SA)>
1.703

> <Valence>
6.123

> <Coulomb>
3.449

> <VdW>
0.209

> <VdW6>
-3.762

> <VdW12>
3.972

> <Bond>
0.078

> <Angle>
2.428

> <Pdih>
3.616

> <Idih>
0.002

> <Tether>
0.000

$$$$
VeraChem MOL file


 13 12  0  0  0  0  0  0  0  0999 V2000     
   21.2689   18.3333   23.2138 C   0  0  0  0  0  0  0  0  0  0  0  0
   21.8966   17.4088   22.7373 O   0  5  0  0  0  0  0  0  0  0  0  0
   21.7533   19.1535   23.9679 O   0  0  0  0  0  0  0  0  0  0  0  0
   19.7845   18.4525   22.8773 C   0  0  0  0  0  0  0  0  0  0  0  0
   19.2469   18.6079   23.8202 H   0  0  0  0  0  0  0  0  0  0  0  0
   19.4386   17.4947   22.4695 H   0  0  0  0  0  0  0  0  0  0  0  0
   19.4468   19.6039   21.8955 C   0  0  0  0  0  0  0  0  0  0  0  0
   18.3556   19.7116   21.8289 H   0  0  0  0  0  0  0  0  0  0  0  0
   19.8340   20.5522   22.2938 H   0  0  0  0  0  0  0  0  0  0  0  0
   20.0163   19.3610   20.4825 C   0  0  0  0  0  0  0  0  0  0  0  0
   19.6243   18.4282   20.0564 H   0  0  0  0  0  0  0  0  0  0  0  0
   19.7431   20.1834   19.8087 H   0  0  0  0  0  0  0  0  0  0  0  0
   21.1121   19.2922   20.5051 H   0  0  0  0  0  0  0  0  0  0  0  0
  1  2  1  0  0  0  0
  1  3  2  0  0  0  0
  1  4  1  0  0  0  0
  4  5  1  0  0  0  0
  4  6  1  0  0  0  0
  4  7  1  0  0  0  0
  7  8  1  0  0  0  0
  7  9  1  0  0  0  0
  7 10  1  0  0  0  0
 10 11  1  0  0  0  0
 10 12  1  0  0  0  0
 10 13  1  0  0  0  0
M  END
> <VConfSearch Rank>
776

> <Conf_Id>
36

> <Delta U+W>
0.272

> <U+W>
-58.060

> <U>
9.781

> <W>
-67.841

> <W(PB)>
-69.537

> <W(SA)>
1.696

> <Valence>
6.123

> <Coulomb>
3.449

> <VdW>
0.209

> <VdW6>
-3.762

> <VdW12>
3.972

> <Bond>
0.078

> <Angle>
2.428

> <Pdih>
3.616

> <Idih>
0.002

> <Tether>
0.000

$$$$
VeraChem MOL file


 13 12  0  0  0  0  0  0  0  0999 V2000     
   19.5118   19.1029   19.7529 C   0  0  0  0  0  0  0  0  0  0  0  0
   20.6217   19.1004   19.2574 O   0  5  0  0  0  0  0  0  0  0  0  0
   18.4933   19.1544   19.0936 O   0  0  0  0  0  0  0  0  0  0  0  0
   19.3576   19.0395   21.2738 C   0  0  0  0  0  0  0  0  0  0  0  0
   18.7440   18.1605   21.5045 H   0  0  0  0  0  0  0  0  0  0  0  0
   18.7830   19.9210   21.5819 H   0  0  0  0  0  0  0  0  0  0  0  0
   20.6848   18.9749   22.0741 C   0  0  0  0  0  0  0  0  0  0  0  0
   21.2604   18.0925   21.7617 H   0  0  0  0  0  0  0  0  0  0  0  0
   21.2994   19.8551   21.8391 H   0  0  0  0  0  0  0  0  0  0  0  0
   20.4309   18.9138   23.5938 C   0  0  0  0  0  0  0  0  0  0  0  0
   19.8438   18.0246   23.8587 H   0  0  0  0  0  0  0  0  0  0  0  0
   21.3805   18.8687   24.1428 H   0  0  0  0  0  0  0  0  0  0  0  0
   19.8830   19.8014   23.9367 H   0  0  0  0  0  0  0  0  0  0  0  0
  1  2  1  0  0  0  0
  1  3  2  0  0  0  0
  1  4  1  0  0  0  0
  4  5  1  0  0  0  0
  4  6  1  0  0  0  0
  4  7  1  0  0  0  0
  7  8  1  0  0  0  0
  7  9  1  0  0  0  0
  7 10  1  0  0  0  0
 10 11  1  0  0  0  0
 10 12  1  0  0  0  0
 10 13  1  0  0  0  0
M  END
> <VConfSearch Rank>
777

> <Conf_Id>
0

> <Delta U+W>
0.000

> <U+W>
-58.332

> <U>
8.390

> <W>
-66.722

> <W(PB)>
-68.455

> <W(SA)>
1.733

> <Valence>
6.333

> <Coulomb>
1.215

> <VdW>
0.842

> <VdW6>
-3.344

> <VdW12>
4.186

> <Bond>
0.091

> <Angle>
2.713

> <Pdih>
3.529

> <Idih>
0.000

> <Tether>
0.000

$$$$
VeraChem MOL file


 13 12  0  0  0  0  0  0  0  0999 V2000     
   21.3483   17.4355   21.6306 C   0  0  0  0  0  0  0  0  0  0  0  0
   20.9853   16.5133   20.9283 O   0  5  0  0  0  0  0  0  0  0  0  0
   22.1743   17.3215   22.5138 O   0  0  0  0  0  0  0  0  0  0  0  0
   20.7194   18.8060   21.4036 C   0  0  0  0  0  0  0  0  0  0  0  0
   20.4889   18.9033   20.3357 H   0  0  0  0  0  0  0  0  0  0  0  0
   21.4694   19.5697   21.6432 H   0  0  0  0  0  0  0  0  0  0  0  0
   19.4414   19.0315   22.2471 C   0  0  0  0  0  0  0  0  0  0  0  0
   18.7015   18.2554   22.0061 H   0  0  0  0  0  0  0  0  0  0  0  0
   19.6823   18.9221   23.3138 H   0  0  0  0  0  0  0  0  0  0  0  0
   18.8305   20.4246   21.9951 C   0  0  0  0  0  0  0  0  0  0  0  0
   17.9261   20.5657   22.6014 H   0  0  0  0  0  0  0  0  0  0  0  0
   19.5418   21.2187   22.2575 H   0  0  0  0  0  0  0  0  0  0  0  0
   18.5535   20.5469   20.9397 H   0  0  0  0  0  0  0  0  0  0  0  0
  1  2  1  0  0  0  0
  1  3  2  0  0  0  0
  1  4  1  0  0  0  0
  4  5  1  0  0  0  0
  4  6  1  0  0  0  0
  4  7  1  0  0  0  0
  7  8  1  0  0  0  0
  7  9  1  0  0  0  0
  7 10  1  0  0  0  0
 10 11  1  0  0  0  0
 10 12  1  0  0  0  0
 10 13  1  0  0  0  0
M  END
> <VConfSearch Rank>
778

> <Conf_Id>
1

> <Delta U+W>
-1.339

> <U+W>
-59.672

> <U>
7.389

> <W>
-67.061

> <W(PB)>
-68.767

> <W(SA)>
1.707

> <Valence>
5.822

> <Coulomb>
1.255

> <VdW>
0.312

> <VdW6>
-3.061

> <VdW12>
3.372

> <Bond>
0.059

> <Angle>
2.241

> <Pdih>
3.522

> <Idih>
0.000

> <Tether>
0.000

$$$$
VeraChem MOL file


 13 12  0  0  0  0  0  0  0  0999 V2000     
   19.3367   17.7761   23.0782 C   0  0  0  0  0  0  0  0  0  0  0  0
   18.4928   17.0679   22.5661 O   0  5  0  0  0  0  0  0  0  0  0  0
   20.1395   17.3757   23.8974 O   0  0  0  0  0  0  0  0  0  0  0  0
   19.3644   19.2543   22.6974 C   0  0  0  0  0  0  0  0  0  0  0  0
   19.9393   19.8015   23.4545 H   0  0  0  0  0  0  0  0  0  0  0  0
   18.3341   19.6255   22.7527 H   0  0  0  0  0  0  0  0  0  0  0  0
   19.9385   19.5350   21.2849 C   0  0  0  0  0  0  0  0  0  0  0  0
   19.3821   18.9503   20.5390 H   0  0  0  0  0  0  0  0  0  0  0  0
   19.7820   20.5937   21.0368 H   0  0  0  0  0  0  0  0  0  0  0  0
   21.4434   19.2110   21.1842 C   0  0  0  0  0  0  0  0  0  0  0  0
   21.6324   18.1478   21.3834 H   0  0  0  0  0  0  0  0  0  0  0  0
   21.8218   19.4392   20.1793 H   0  0  0  0  0  0  0  0  0  0  0  0
   22.0212   19.8018   21.9070 H   0  0  0  0  0  0  0  0  0  0  0  0
  1  2  1  0  0  0  0
  1  3  2  0  0  0  0
  1  4  1  0  0  0  0
  4  5  1  0  0  0  0
  4  6  1  0  0  0  0
  4  7  1  0  0  0  0
  7  8  1  0  0  0  0
  7  9  1  0  0  0  0
  7 10  1  0  0  0  0
 10 11  1  0  0  0  0
 10 12  1  0  0  0  0
 10 13  1  0  0  0  0
M  END
> <VConfSearch Rank>
779

> <Conf_Id>
4

> <Delta U+W>
0.281

> <U+W>
-58.051

> <U>
9.781

> <W>
-67.832

> <W(PB)>
-69.535

> <W(SA)>
1.703

> <Valence>
6.123

> <Coulomb>
3.449

> <VdW>
0.209

> <VdW6>
-3.762

> <VdW12>
3.972

> <Bond>
0.078

> <Angle>
2.428

> <Pdih>
3.616

> <Idih>
0.002

> <Tether>
0.000

$$$$
VeraChem MOL file


 13 12  0  0  0  0  0  0  0  0999 V2000     
   18.6780   17.9985   21.5492 C   0  0  0  0  0  0  0  0  0  0  0  0
   18.5032   17.1242   22.3744 O   0  5  0  0  0  0  0  0  0  0  0  0
   17.7715   18.6054   21.0145 O   0  0  0  0  0  0  0  0  0  0  0  0
   20.1095   18.3292   21.1344 C   0  0  0  0  0  0  0  0  0  0  0  0
   20.1349   18.3540   20.0384 H   0  0  0  0  0  0  0  0  0  0  0  0
   20.7650   17.5074   21.4479 H   0  0  0  0  0  0  0  0  0  0  0  0
   20.6371   19.6757   21.6929 C   0  0  0  0  0  0  0  0  0  0  0  0
   21.6056   19.9038   21.2272 H   0  0  0  0  0  0  0  0  0  0  0  0
   19.9512   20.4859   21.4081 H   0  0  0  0  0  0  0  0  0  0  0  0
   20.8081   19.6526   23.2259 C   0  0  0  0  0  0  0  0  0  0  0  0
   21.5078   18.8634   23.5308 H   0  0  0  0  0  0  0  0  0  0  0  0
   21.2009   20.6124   23.5859 H   0  0  0  0  0  0  0  0  0  0  0  0
   19.8483   19.4706   23.7274 H   0  0  0  0  0  0  0  0  0  0  0  0
  1  2  1  0  0  0  0
  1  3  2  0  0  0  0
  1  4  1  0  0  0  0
  4  5  1  0  0  0  0
  4  6  1  0  0  0  0
  4  7  1  0  0  0  0
  7  8  1  0  0  0  0
  7  9  1  0  0  0  0
  7 10  1  0  0  0  0
 10 11  1  0  0  0  0
 10 12  1  0  0  0  0
 10 13  1  0  0  0  0
M  END
> <VConfSearch Rank>
780

> <Conf_Id>
36

> <Delta U+W>
0.272

> <U+W>
-58.060

> <U>
9.781

> <W>
-67.841

> <W(PB)>
-69.537

> <W(SA)>
1.696

> <Valence>
6.123

> <Coulomb>
3.449

> <VdW>
0.209

> <VdW6>
-3.762

> <VdW12>
3.972

> <Bond>
0.078

> <Angle>
2.428

> <Pdih>
3.616

> <Idih>
0.002

> <Tether>
0.000

$$$$
VeraChem MOL file


 13 12  0  0  0  0  0  0  0  0999 V2000     
   20.5473   17.4259   20.4821 C   0  0  0  0  0  0  0  0  0  0  0  0
   19.9474   16.5008   20.9935 O   0  5  0  0  0  0  0  0  0  0  0  0
   21.2186   17.3041   19.4775 O   0  0  0  0  0  0  0  0  0  0  0  0
   20.4735   18.8196   21.1089 C   0  0  0  0  0  0  0  0  0  0  0  0
   20.0884   19.5034   20.3430 H   0  0  0  0  0  0  0  0  0  0  0  0
   21.5003   19.1336   21.3313 H   0  0  0  0  0  0  0  0  0  0  0  0
   19.6052   18.9271   22.3896 C   0  0  0  0  0  0  0  0  0  0  0  0
   18.5774   18.6092   22.1652 H   0  0  0  0  0  0  0  0  0  0  0  0
   19.9910   18.2390   23.1547 H   0  0  0  0  0  0  0  0  0  0  0  0
   19.5903   20.3642   22.9486 C   0  0  0  0  0  0  0  0  0  0  0  0
   19.1792   21.0678   22.2127 H   0  0  0  0  0  0  0  0  0  0  0  0
   18.9715   20.4204   23.8537 H   0  0  0  0  0  0  0  0  0  0  0  0
   20.6042   20.6946   23.2101 H   0  0  0  0  0  0  0  0  0  0  0  0
  1  2  1  0  0  0  0
  1  3  2  0  0  0  0
  1  4  1  0  0  0  0
  4  5  1  0  0  0  0
  4  6  1  0  0  0  0
  4  7  1  0  0  0  0
  7  8  1  0  0  0  0
  7  9  1  0  0  0  0
  7 10  1  0  0  0  0
 10 11  1  0  0  0  0
 10 12  1  0  0  0  0
 10 13  1  0  0  0  0
M  END
> <VConfSearch Rank>
781

> <Conf_Id>
0

> <Delta U+W>
0.000

> <U+W>
-58.332

> <U>
8.390

> <W>
-66.722

> <W(PB)>
-68.455

> <W(SA)>
1.733

> <Valence>
6.333

> <Coulomb>
1.215

> <VdW>
0.842

> <VdW6>
-3.344

> <VdW12>
4.186

> <Bond>
0.091

> <Angle>
2.713

> <Pdih>
3.529

> <Idih>
0.000

> <Tether>
0.000

$$$$
VeraChem MOL file


 13 12  0  0  0  0  0  0  0  0999 V2000     
   18.0992   19.6354   22.5616 C   0  0  0  0  0  0  0  0  0  0  0  0
   17.3884   20.2320   21.7779 O   0  5  0  0  0  0  0  0  0  0  0  0
   18.0001   19.7359   23.7680 O   0  0  0  0  0  0  0  0  0  0  0  0
   19.1869   18.7257   22.0005 C   0  0  0  0  0  0  0  0  0  0  0  0
   18.8232   18.3003   21.0572 H   0  0  0  0  0  0  0  0  0  0  0  0
   19.3277   17.8913   22.6983 H   0  0  0  0  0  0  0  0  0  0  0  0
   20.5298   19.4602   21.7708 C   0  0  0  0  0  0  0  0  0  0  0  0
   20.3748   20.2995   21.0784 H   0  0  0  0  0  0  0  0  0  0  0  0
   20.8794   19.8902   22.7199 H   0  0  0  0  0  0  0  0  0  0  0  0
   21.6073   18.5143   21.2037 C   0  0  0  0  0  0  0  0  0  0  0  0
   22.5513   19.0527   21.0477 H   0  0  0  0  0  0  0  0  0  0  0  0
   21.8016   17.6821   21.8931 H   0  0  0  0  0  0  0  0  0  0  0  0
   21.2931   18.0945   20.2390 H   0  0  0  0  0  0  0  0  0  0  0  0
  1  2  1  0  0  0  0
  1  3  2  0  0  0  0
  1  4  1  0  0  0  0
  4  5  1  0  0  0  0
  4  6  1  0  0  0  0
  4  7  1  0  0  0  0
  7  8  1  0  0  0  0
  7  9  1  0  0  0  0
  7 10  1  0  0  0  0
 10 11  1  0  0  0  0
 10 12  1  0  0  0  0
 10 13  1  0  0  0  0
M  END
> <VConfSearch Rank>
782

> <Conf_Id>
1

> <Delta U+W>
-1.339

> <U+W>
-59.672

> <U>
7.389

> <W>
-67.061

> <W(PB)>
-68.767

> <W(SA)>
1.707

> <Valence>
5.822

> <Coulomb>
1.255

> <VdW>
0.312

> <VdW6>
-3.061

> <VdW12>
3.372

> <Bond>
0.059

> <Angle>
2.241

> <Pdih>
3.522

> <Idih>
0.000

> <Tether>
0.000

$$$$
VeraChem MOL file


 13 12  0  0  0  0  0  0  0  0999 V2000     
   21.2083   18.1812   20.8056 C   0  0  0  0  0  0  0  0  0  0  0  0
   22.2849   18.7158   20.6294 O   0  5  0  0  0  0  0  0  0  0  0  0
   21.0585   16.9765   20.8522 O   0  0  0  0  0  0  0  0  0  0  0  0
   19.9753   19.0715   20.9395 C   0  0  0  0  0  0  0  0  0  0  0  0
   19.0803   18.4602   20.7703 H   0  0  0  0  0  0  0  0  0  0  0  0
   20.0139   19.8078   20.1278 H   0  0  0  0  0  0  0  0  0  0  0  0
   19.8692   19.8084   22.2993 C   0  0  0  0  0  0  0  0  0  0  0  0
   20.7878   20.3847   22.4779 H   0  0  0  0  0  0  0  0  0  0  0  0
   19.0456   20.5339   22.2522 H   0  0  0  0  0  0  0  0  0  0  0  0
   19.6230   18.8424   23.4766 C   0  0  0  0  0  0  0  0  0  0  0  0
   20.4510   18.1288   23.5814 H   0  0  0  0  0  0  0  0  0  0  0  0
   19.5334   19.3970   24.4198 H   0  0  0  0  0  0  0  0  0  0  0  0
   18.6969   18.2717   23.3289 H   0  0  0  0  0  0  0  0  0  0  0  0
  1  2  1  0  0  0  0
  1  3  2  0  0  0  0
  1  4  1  0  0  0  0
  4  5  1  0  0  0  0
  4  6  1  0  0  0  0
  4  7  1  0  0  0  0
  7  8  1  0  0  0  0
  7  9  1  0  0  0  0
  7 10  1  0  0  0  0
 10 11  1  0  0  0  0
 10 12  1  0  0  0  0
 10 13  1  0  0  0  0
M  END
> <VConfSearch Rank>
783

> <Conf_Id>
4

> <Delta U+W>
0.281

> <U+W>
-58.051

> <U>
9.781

> <W>
-67.832

> <W(PB)>
-69.535

> <W(SA)>
1.703

> <Valence>
6.123

> <Coulomb>
3.449

> <VdW>
0.209

> <VdW6>
-3.762

> <VdW12>
3.972

> <Bond>
0.078

> <Angle>
2.428

> <Pdih>
3.616

> <Idih>
0.002

> <Tether>
0.000

$$$$
VeraChem MOL file


 13 12  0  0  0  0  0  0  0  0999 V2000     
   21.3295   20.1739   21.4616 C   0  0  0  0  0  0  0  0  0  0  0  0
   22.1871   20.2949   22.3136 O   0  5  0  0  0  0  0  0  0  0  0  0
   21.5611   20.2043   20.2693 O   0  0  0  0  0  0  0  0  0  0  0  0
   19.8792   20.0108   21.9098 C   0  0  0  0  0  0  0  0  0  0  0  0
   19.2752   20.7152   21.3256 H   0  0  0  0  0  0  0  0  0  0  0  0
   19.7989   20.3193   22.9594 H   0  0  0  0  0  0  0  0  0  0  0  0
   19.3169   18.5773   21.7302 C   0  0  0  0  0  0  0  0  0  0  0  0
   18.2371   18.5863   21.9321 H   0  0  0  0  0  0  0  0  0  0  0  0
   19.4400   18.2623   20.6844 H   0  0  0  0  0  0  0  0  0  0  0  0
   19.9959   17.5553   22.6654 C   0  0  0  0  0  0  0  0  0  0  0  0
   19.8657   17.8395   23.7179 H   0  0  0  0  0  0  0  0  0  0  0  0
   19.5619   16.5565   22.5272 H   0  0  0  0  0  0  0  0  0  0  0  0
   21.0726   17.4874   22.4606 H   0  0  0  0  0  0  0  0  0  0  0  0
  1  2  1  0  0  0  0
  1  3  2  0  0  0  0
  1  4  1  0  0  0  0
  4  5  1  0  0  0  0
  4  6  1  0  0  0  0
  4  7  1  0  0  0  0
  7  8  1  0  0  0  0
  7  9  1  0  0  0  0
  7 10  1  0  0  0  0
 10 11  1  0  0  0  0
 10 12  1  0  0  0  0
 10 13  1  0  0  0  0
M  END
> <VConfSearch Rank>
784

> <Conf_Id>
36

> <Delta U+W>
0.272

> <U+W>
-58.060

> <U>
9.781

> <W>
-67.841

> <W(PB)>
-69.537

> <W(SA)>
1.696

> <Valence>
6.123

> <Coulomb>
3.449

> <VdW>
0.209

> <VdW6>
-3.762

> <VdW12>
3.972

> <Bond>
0.078

> <Angle>
2.428

> <Pdih>
3.616

> <Idih>
0.002

> <Tether>
0.000

$$$$
VeraChem MOL file


 13 12  0  0  0  0  0  0  0  0999 V2000     
   18.4710   18.6973   20.3898 C   0  0  0  0  0  0  0  0  0  0  0  0
   17.5140   18.5875   21.1310 O   0  5  0  0  0  0  0  0  0  0  0  0
   18.3826   18.6260   19.1807 O   0  0  0  0  0  0  0  0  0  0  0  0
   19.8638   18.9363   20.9761 C   0  0  0  0  0  0  0  0  0  0  0  0
   20.2479   19.8660   20.5396 H   0  0  0  0  0  0  0  0  0  0  0  0
   20.5116   18.1251   20.6229 H   0  0  0  0  0  0  0  0  0  0  0  0
   19.9279   19.0201   22.5236 C   0  0  0  0  0  0  0  0  0  0  0  0
   19.2758   19.8316   22.8756 H   0  0  0  0  0  0  0  0  0  0  0  0
   19.5397   18.0887   22.9590 H   0  0  0  0  0  0  0  0  0  0  0  0
   21.3671   19.2618   23.0217 C   0  0  0  0  0  0  0  0  0  0  0  0
   21.7672   20.2041   22.6246 H   0  0  0  0  0  0  0  0  0  0  0  0
   21.3924   19.3181   24.1178 H   0  0  0  0  0  0  0  0  0  0  0  0
   22.0333   18.4471   22.7087 H   0  0  0  0  0  0  0  0  0  0  0  0
  1  2  1  0  0  0  0
  1  3  2  0  0  0  0
  1  4  1  0  0  0  0
  4  5  1  0  0  0  0
  4  6  1  0  0  0  0
  4  7  1  0  0  0  0
  7  8  1  0  0  0  0
  7  9  1  0  0  0  0
  7 10  1  0  0  0  0
 10 11  1  0  0  0  0
 10 12  1  0  0  0  0
 10 13  1  0  0  0  0
M  END
> <VConfSearch Rank>
785

> <Conf_Id>
0

> <Delta U+W>
0.000

> <U+W>
-58.332

> <U>
8.390

> <W>
-66.722

> <W(PB)>
-68.455

> <W(SA)>
1.733

> <Valence>
6.333

> <Coulomb>
1.215

> <VdW>
0.842

> <VdW6>
-3.344

> <VdW12>
4.186

> <Bond>
0.091

> <Angle>
2.713

> <Pdih>
3.529

> <Idih>
0.000

> <Tether>
0.000

$$$$
VeraChem MOL file


 13 12  0  0  0  0  0  0  0  0999 V2000     
   18.0310   18.4081   21.3564 C   0  0  0  0  0  0  0  0  0  0  0  0
   17.3084   18.1541   22.2991 O   0  5  0  0  0  0  0  0  0  0  0  0
   17.8760   17.9393   20.2467 O   0  0  0  0  0  0  0  0  0  0  0  0
   19.2074   19.3516   21.5830 C   0  0  0  0  0  0  0  0  0  0  0  0
   18.9159   20.0836   22.3461 H   0  0  0  0  0  0  0  0  0  0  0  0
   19.3840   19.9065   20.6535 H   0  0  0  0  0  0  0  0  0  0  0  0
   20.4978   18.6151   22.0170 C   0  0  0  0  0  0  0  0  0  0  0  0
   20.3064   18.0552   22.9431 H   0  0  0  0  0  0  0  0  0  0  0  0
   20.7746   17.8781   21.2501 H   0  0  0  0  0  0  0  0  0  0  0  0
   21.6670   19.5957   22.2378 C   0  0  0  0  0  0  0  0  0  0  0  0
   22.5721   19.0554   22.5446 H   0  0  0  0  0  0  0  0  0  0  0  0
   21.8970   20.1466   21.3163 H   0  0  0  0  0  0  0  0  0  0  0  0
   21.4252   20.3249   23.0222 H   0  0  0  0  0  0  0  0  0  0  0  0
  1  2  1  0  0  0  0
  1  3  2  0  0  0  0
  1  4  1  0  0  0  0
  4  5  1  0  0  0  0
  4  6  1  0  0  0  0
  4  7  1  0  0  0  0
  7  8  1  0  0  0  0
  7  9  1  0  0  0  0
  7 10  1  0  0  0  0
 10 11  1  0  0  0  0
 10 12  1  0  0  0  0
 10 13  1  0  0  0  0
M  END
> <VConfSearch Rank>
786

> <Conf_Id>
1

> <Delta U+W>
-1.339

> <U+W>
-59.672

> <U>
7.389

> <W>
-67.061

> <W(PB)>
-68.767

> <W(SA)>
1.707

> <Valence>
5.822

> <Coulomb>
1.255

> <VdW>
0.312

> <VdW6>
-3.061

> <VdW12>
3.372

> <Bond>
0.059

> <Angle>
2.241

> <Pdih>
3.522

> <Idih>
0.000

> <Tether>
0.000

$$$$
VeraChem MOL file


 13 12  0  0  0  0  0  0  0  0999 V2000     
   21.8126   19.5644   21.9107 C   0  0  0  0  0  0  0  0  0  0  0  0
   22.3581   19.4671   20.8295 O   0  5  0  0  0  0  0  0  0  0  0  0
   21.9426   20.5257   22.6422 O   0  0  0  0  0  0  0  0  0  0  0  0
   20.9478   18.4006   22.3885 C   0  0  0  0  0  0  0  0  0  0  0  0
   20.8002   18.4939   23.4715 H   0  0  0  0  0  0  0  0  0  0  0  0
   21.5199   17.4795   22.2252 H   0  0  0  0  0  0  0  0  0  0  0  0
   19.5783   18.2910   21.6705 C   0  0  0  0  0  0  0  0  0  0  0  0
   19.7358   18.2397   20.5840 H   0  0  0  0  0  0  0  0  0  0  0  0
   19.0924   17.3503   21.9637 H   0  0  0  0  0  0  0  0  0  0  0  0
   18.6399   19.4687   22.0059 C   0  0  0  0  0  0  0  0  0  0  0  0
   19.0757   20.4242   21.6852 H   0  0  0  0  0  0  0  0  0  0  0  0
   17.6739   19.3503   21.4980 H   0  0  0  0  0  0  0  0  0  0  0  0
   18.4512   19.5247   23.0860 H   0  0  0  0  0  0  0  0  0  0  0  0
  1  2  1  0  0  0  0
  1  3  2  0  0  0  0
  1  4  1  0  0  0  0
  4  5  1  0  0  0  0
  4  6  1  0  0  0  0
  4  7  1  0  0  0  0
  7  8  1  0  0  0  0
  7  9  1  0  0  0  0
  7 10  1  0  0  0  0
 10 11  1  0  0  0  0
 10 12  1  0  0  0  0
 10 13  1  0  0  0  0
M  END
> <VConfSearch Rank>
787

> <Conf_Id>
4

> <Delta U+W>
0.281

> <U+W>
-58.051

> <U>
9.781

> <W>
-67.832

> <W(PB)>
-69.535

> <W(SA)>
1.703

> <Valence>
6.123

> <Coulomb>
3.449

> <VdW>
0.209

> <VdW6>
-3.762

> <VdW12>
3.972

> <Bond>
0.078

> <Angle>
2.428

> <Pdih>
3.616

> <Idih>
0.002

> <Tether>
0.000

$$$$
VeraChem MOL file


 13 12  0  0  0  0  0  0  0  0999 V2000     
   18.6746   17.9052   21.9635 C   0  0  0  0  0  0  0  0  0  0  0  0
   18.2123   17.8110   23.0830 O   0  5  0  0  0  0  0  0  0  0  0  0
   17.9923   17.9636   20.9599 O   0  0  0  0  0  0  0  0  0  0  0  0
   20.1929   17.9150   21.8038 C   0  0  0  0  0  0  0  0  0  0  0  0
   20.4435   17.1951   21.0156 H   0  0  0  0  0  0  0  0  0  0  0  0
   20.6461   17.5409   22.7301 H   0  0  0  0  0  0  0  0  0  0  0  0
   20.7841   19.3018   21.4424 C   0  0  0  0  0  0  0  0  0  0  0  0
   21.8495   19.1869   21.2002 H   0  0  0  0  0  0  0  0  0  0  0  0
   20.2940   19.6858   20.5367 H   0  0  0  0  0  0  0  0  0  0  0  0
   20.6354   20.3239   22.5884 C   0  0  0  0  0  0  0  0  0  0  0  0
   21.1378   19.9695   23.4980 H   0  0  0  0  0  0  0  0  0  0  0  0
   21.0807   21.2872   22.3078 H   0  0  0  0  0  0  0  0  0  0  0  0
   19.5778   20.4972   22.8278 H   0  0  0  0  0  0  0  0  0  0  0  0
  1  2  1  0  0  0  0
  1  3  2  0  0  0  0
  1  4  1  0  0  0  0
  4  5  1  0  0  0  0
  4  6  1  0  0  0  0
  4  7  1  0  0  0  0
  7  8  1  0  0  0  0
  7  9  1  0  0  0  0
  7 10  1  0  0  0  0
 10 11  1  0  0  0  0
 10 12  1  0  0  0  0
 10 13  1  0  0  0  0
M  END
> <VConfSearch Rank>
788

> <Conf_Id>
36

> <Delta U+W>
0.272

> <U+W>
-58.060

> <U>
9.781

> <W>
-67.841

> <W(PB)>
-69.537

> <W(SA)>
1.696

> <Valence>
6.123

> <Coulomb>
3.449

> <VdW>
0.209

> <VdW6>
-3.762

> <VdW12>
3.972

> <Bond>
0.078

> <Angle>
2.428

> <Pdih>
3.616

> <Idih>
0.002

> <Tether>
0.000

$$$$
VeraChem MOL file


 13 12  0  0  0  0  0  0  0  0999 V2000     
   18.7434   18.7697   23.5113 C   0  0  0  0  0  0  0  0  0  0  0  0
   17.6965   19.1747   23.0451 O   0  5  0  0  0  0  0  0  0  0  0  0
   18.8496   18.3765   24.6554 O   0  0  0  0  0  0  0  0  0  0  0  0
   20.0026   18.7417   22.6428 C   0  0  0  0  0  0  0  0  0  0  0  0
   20.3670   17.7077   22.6272 H   0  0  0  0  0  0  0  0  0  0  0  0
   20.7654   19.3425   23.1521 H   0  0  0  0  0  0  0  0  0  0  0  0
   19.8191   19.2529   21.1899 C   0  0  0  0  0  0  0  0  0  0  0  0
   19.0521   18.6514   20.6822 H   0  0  0  0  0  0  0  0  0  0  0  0
   19.4509   20.2882   21.2077 H   0  0  0  0  0  0  0  0  0  0  0  0
   21.1373   19.1877   20.3925 C   0  0  0  0  0  0  0  0  0  0  0  0
   21.5103   18.1568   20.3335 H   0  0  0  0  0  0  0  0  0  0  0  0
   20.9878   19.5531   19.3680 H   0  0  0  0  0  0  0  0  0  0  0  0
   21.9123   19.8067   20.8633 H   0  0  0  0  0  0  0  0  0  0  0  0
  1  2  1  0  0  0  0
  1  3  2  0  0  0  0
  1  4  1  0  0  0  0
  4  5  1  0  0  0  0
  4  6  1  0  0  0  0
  4  7  1  0  0  0  0
  7  8  1  0  0  0  0
  7  9  1  0  0  0  0
  7 10  1  0  0  0  0
 10 11  1  0  0  0  0
 10 12  1  0  0  0  0
 10 13  1  0  0  0  0
M  END
> <VConfSearch Rank>
789

> <Conf_Id>
0

> <Delta U+W>
0.000

> <U+W>
-58.332

> <U>
8.390

> <W>
-66.722

> <W(PB)>
-68.455

> <W(SA)>
1.733

> <Valence>
6.333

> <Coulomb>
1.215

> <VdW>
0.842

> <VdW6>
-3.344

> <VdW12>
4.186

> <Bond>
0.091

> <Angle>
2.713

> <Pdih>
3.529

> <Idih>
0.000

> <Tether>
0.000

$$$$
VeraChem MOL file


 13 12  0  0  0  0  0  0  0  0999 V2000     
   20.9395   17.1782   22.1373 C   0  0  0  0  0  0  0  0  0  0  0  0
   21.0379   16.4627   21.1608 O   0  5  0  0  0  0  0  0  0  0  0  0
   20.9419   16.7609   23.2780 O   0  0  0  0  0  0  0  0  0  0  0  0
   20.7856   18.6796   21.9188 C   0  0  0  0  0  0  0  0  0  0  0  0
   21.3420   18.9517   21.0136 H   0  0  0  0  0  0  0  0  0  0  0  0
   21.2628   19.1976   22.7596 H   0  0  0  0  0  0  0  0  0  0  0  0
   19.3083   19.1230   21.7894 C   0  0  0  0  0  0  0  0  0  0  0  0
   18.8380   18.5906   20.9508 H   0  0  0  0  0  0  0  0  0  0  0  0
   18.7588   18.8368   22.6972 H   0  0  0  0  0  0  0  0  0  0  0  0
   19.1869   20.6443   21.5695 C   0  0  0  0  0  0  0  0  0  0  0  0
   18.1332   20.9392   21.4802 H   0  0  0  0  0  0  0  0  0  0  0  0
   19.6240   21.1988   22.4103 H   0  0  0  0  0  0  0  0  0  0  0  0
   19.7037   20.9507   20.6505 H   0  0  0  0  0  0  0  0  0  0  0  0
  1  2  1  0  0  0  0
  1  3  2  0  0  0  0
  1  4  1  0  0  0  0
  4  5  1  0  0  0  0
  4  6  1  0  0  0  0
  4  7  1  0  0  0  0
  7  8  1  0  0  0  0
  7  9  1  0  0  0  0
  7 10  1  0  0  0  0
 10 11  1  0  0  0  0
 10 12  1  0  0  0  0
 10 13  1  0  0  0  0
M  END
> <VConfSearch Rank>
790

> <Conf_Id>
1

> <Delta U+W>
-1.339

> <U+W>
-59.672

> <U>
7.389

> <W>
-67.061

> <W(PB)>
-68.767

> <W(SA)>
1.707

> <Valence>
5.822

> <Coulomb>
1.255

> <VdW>
0.312

> <VdW6>
-3.061

> <VdW12>
3.372

> <Bond>
0.059

> <Angle>
2.241

> <Pdih>
3.522

> <Idih>
0.000

> <Tether>
0.000

$$$$
VeraChem MOL file


 13 12  0  0  0  0  0  0  0  0999 V2000     
   19.5060   17.3376   21.5845 C   0  0  0  0  0  0  0  0  0  0  0  0
   19.2309   16.6182   22.5240 O   0  5  0  0  0  0  0  0  0  0  0  0
   18.8391   17.3998   20.5709 O   0  0  0  0  0  0  0  0  0  0  0  0
   20.7764   18.1799   21.6701 C   0  0  0  0  0  0  0  0  0  0  0  0
   21.0494   18.5079   20.6595 H   0  0  0  0  0  0  0  0  0  0  0  0
   21.5820   17.5222   22.0178 H   0  0  0  0  0  0  0  0  0  0  0  0
   20.6646   19.4027   22.6163 C   0  0  0  0  0  0  0  0  0  0  0  0
   20.3507   19.0675   23.6149 H   0  0  0  0  0  0  0  0  0  0  0  0
   21.6571   19.8587   22.7341 H   0  0  0  0  0  0  0  0  0  0  0  0
   19.6799   20.4678   22.0909 C   0  0  0  0  0  0  0  0  0  0  0  0
   18.6651   20.0577   22.0028 H   0  0  0  0  0  0  0  0  0  0  0  0
   19.6393   21.3270   22.7728 H   0  0  0  0  0  0  0  0  0  0  0  0
   19.9877   20.8330   21.1023 H   0  0  0  0  0  0  0  0  0  0  0  0
  1  2  1  0  0  0  0
  1  3  2  0  0  0  0
  1  4  1  0  0  0  0
  4  5  1  0  0  0  0
  4  6  1  0  0  0  0
  4  7  1  0  0  0  0
  7  8  1  0  0  0  0
  7  9  1  0  0  0  0
  7 10  1  0  0  0  0
 10 11  1  0  0  0  0
 10 12  1  0  0  0  0
 10 13  1  0  0  0  0
M  END
> <VConfSearch Rank>
791

> <Conf_Id>
4

> <Delta U+W>
0.281

> <U+W>
-58.051

> <U>
9.781

> <W>
-67.832

> <W(PB)>
-69.535

> <W(SA)>
1.703

> <Valence>
6.123

> <Coulomb>
3.449

> <VdW>
0.209

> <VdW6>
-3.762

> <VdW12>
3.972

> <Bond>
0.078

> <Angle>
2.428

> <Pdih>
3.616

> <Idih>
0.002

> <Tether>
0.000

$$$$
VeraChem MOL file


 13 12  0  0  0  0  0  0  0  0999 V2000     
   18.4967   19.5576   21.5092 C   0  0  0  0  0  0  0  0  0  0  0  0
   17.8806   19.9159   22.4930 O   0  5  0  0  0  0  0  0  0  0  0  0
   18.4366   20.1268   20.4375 O   0  0  0  0  0  0  0  0  0  0  0  0
   19.3648   18.3061   21.6124 C   0  0  0  0  0  0  0  0  0  0  0  0
   19.1284   17.6721   20.7495 H   0  0  0  0  0  0  0  0  0  0  0  0
   19.0686   17.7457   22.5077 H   0  0  0  0  0  0  0  0  0  0  0  0
   20.8884   18.5911   21.6408 C   0  0  0  0  0  0  0  0  0  0  0  0
   21.4338   17.6406   21.5631 H   0  0  0  0  0  0  0  0  0  0  0  0
   21.1673   19.1879   20.7611 H   0  0  0  0  0  0  0  0  0  0  0  0
   21.3286   19.3211   22.9266 C   0  0  0  0  0  0  0  0  0  0  0  0
   21.0790   18.7308   23.8180 H   0  0  0  0  0  0  0  0  0  0  0  0
   22.4133   19.4896   22.9236 H   0  0  0  0  0  0  0  0  0  0  0  0
   20.8348   20.2979   23.0145 H   0  0  0  0  0  0  0  0  0  0  0  0
  1  2  1  0  0  0  0
  1  3  2  0  0  0  0
  1  4  1  0  0  0  0
  4  5  1  0  0  0  0
  4  6  1  0  0  0  0
  4  7  1  0  0  0  0
  7  8  1  0  0  0  0
  7  9  1  0  0  0  0
  7 10  1  0  0  0  0
 10 11  1  0  0  0  0
 10 12  1  0  0  0  0
 10 13  1  0  0  0  0
M  END
> <VConfSearch Rank>
792

> <Conf_Id>
36

> <Delta U+W>
0.272

> <U+W>
-58.060

> <U>
9.781

> <W>
-67.841

> <W(PB)>
-69.537

> <W(SA)>
1.696

> <Valence>
6.123

> <Coulomb>
3.449

> <VdW>
0.209

> <VdW6>
-3.762

> <VdW12>
3.972

> <Bond>
0.078

> <Angle>
2.428

> <Pdih>
3.616

> <Idih>
0.002

> <Tether>
0.000

$$$$
VeraChem MOL file


 13 12  0  0  0  0  0  0  0  0999 V2000     
   20.7932   20.9369   21.3678 C   0  0  0  0  0  0  0  0  0  0  0  0
   21.2792   20.7238   20.2743 O   0  5  0  0  0  0  0  0  0  0  0  0
   20.8297   22.0243   21.9073 O   0  0  0  0  0  0  0  0  0  0  0  0
   20.0969   19.8041   22.1245 C   0  0  0  0  0  0  0  0  0  0  0  0
   19.0703   20.1297   22.3301 H   0  0  0  0  0  0  0  0  0  0  0  0
   20.5998   19.6996   23.0933 H   0  0  0  0  0  0  0  0  0  0  0  0
   20.0748   18.4343   21.3970 C   0  0  0  0  0  0  0  0  0  0  0  0
   19.5731   18.5418   20.4252 H   0  0  0  0  0  0  0  0  0  0  0  0
   21.1045   18.1112   21.1894 H   0  0  0  0  0  0  0  0  0  0  0  0
   19.3548   17.3571   22.2331 C   0  0  0  0  0  0  0  0  0  0  0  0
   18.3127   17.6425   22.4281 H   0  0  0  0  0  0  0  0  0  0  0  0
   19.3492   16.3959   21.7026 H   0  0  0  0  0  0  0  0  0  0  0  0
   19.8563   17.2085   23.1984 H   0  0  0  0  0  0  0  0  0  0  0  0
  1  2  1  0  0  0  0
  1  3  2  0  0  0  0
  1  4  1  0  0  0  0
  4  5  1  0  0  0  0
  4  6  1  0  0  0  0
  4  7  1  0  0  0  0
  7  8  1  0  0  0  0
  7  9  1  0  0  0  0
  7 10  1  0  0  0  0
 10 11  1  0  0  0  0
 10 12  1  0  0  0  0
 10 13  1  0  0  0  0
M  END
> <VConfSearch Rank>
793

> <Conf_Id>
0

> <Delta U+W>
0.000

> <U+W>
-58.332

> <U>
8.390

> <W>
-66.722

> <W(PB)>
-68.455

> <W(SA)>
1.733

> <Valence>
6.333

> <Coulomb>
1.215

> <VdW>
0.842

> <VdW6>
-3.344

> <VdW12>
4.186

> <Bond>
0.091

> <Angle>
2.713

> <Pdih>
3.529

> <Idih>
0.000

> <Tether>
0.000

$$$$
VeraChem MOL file


 13 12  0  0  0  0  0  0  0  0999 V2000     
   20.1289   17.4677   20.4284 C   0  0  0  0  0  0  0  0  0  0  0  0
   19.1442   17.2743   19.7440 O   0  5  0  0  0  0  0  0  0  0  0  0
   20.9610   16.6146   20.6632 O   0  0  0  0  0  0  0  0  0  0  0  0
   20.3210   18.8509   21.0412 C   0  0  0  0  0  0  0  0  0  0  0  0
   19.8996   19.5917   20.3508 H   0  0  0  0  0  0  0  0  0  0  0  0
   21.3979   19.0477   21.1087 H   0  0  0  0  0  0  0  0  0  0  0  0
   19.6656   18.9898   22.4365 C   0  0  0  0  0  0  0  0  0  0  0  0
   18.5895   18.7808   22.3584 H   0  0  0  0  0  0  0  0  0  0  0  0
   20.0881   18.2369   23.1165 H   0  0  0  0  0  0  0  0  0  0  0  0
   19.8774   20.3978   23.0281 C   0  0  0  0  0  0  0  0  0  0  0  0
   19.4061   20.4769   24.0165 H   0  0  0  0  0  0  0  0  0  0  0  0
   20.9468   20.6184   23.1438 H   0  0  0  0  0  0  0  0  0  0  0  0
   19.4366   21.1666   22.3799 H   0  0  0  0  0  0  0  0  0  0  0  0
  1  2  1  0  0  0  0
  1  3  2  0  0  0  0
  1  4  1  0  0  0  0
  4  5  1  0  0  0  0
  4  6  1  0  0  0  0
  4  7  1  0  0  0  0
  7  8  1  0  0  0  0
  7  9  1  0  0  0  0
  7 10  1  0  0  0  0
 10 11  1  0  0  0  0
 10 12  1  0  0  0  0
 10 13  1  0  0  0  0
M  END
> <VConfSearch Rank>
794

> <Conf_Id>
1

> <Delta U+W>
-1.339

> <U+W>
-59.672

> <U>
7.389

> <W>
-67.061

> <W(PB)>
-68.767

> <W(SA)>
1.707

> <Valence>
5.822

> <Coulomb>
1.255

> <VdW>
0.312

> <VdW6>
-3.061

> <VdW12>
3.372

> <Bond>
0.059

> <Angle>
2.241

> <Pdih>
3.522

> <Idih>
0.000

> <Tether>
0.000

$$$$
VeraChem MOL file


 13 12  0  0  0  0  0  0  0  0999 V2000     
   19.2369   18.1166   23.2998 C   0  0  0  0  0  0  0  0  0  0  0  0
   18.4759   18.7969   23.9587 O   0  5  0  0  0  0  0  0  0  0  0  0
   18.9860   16.9814   22.9473 O   0  0  0  0  0  0  0  0  0  0  0  0
   20.5937   18.7091   22.9272 C   0  0  0  0  0  0  0  0  0  0  0  0
   21.2642   17.8930   22.6310 H   0  0  0  0  0  0  0  0  0  0  0  0
   21.0174   19.1530   23.8359 H   0  0  0  0  0  0  0  0  0  0  0  0
   20.5324   19.7819   21.8097 C   0  0  0  0  0  0  0  0  0  0  0  0
   19.8270   20.5736   22.0983 H   0  0  0  0  0  0  0  0  0  0  0  0
   21.5181   20.2573   21.7128 H   0  0  0  0  0  0  0  0  0  0  0  0
   20.1220   19.1903   20.4453 C   0  0  0  0  0  0  0  0  0  0  0  0
   19.1197   18.7444   20.4939 H   0  0  0  0  0  0  0  0  0  0  0  0
   20.1076   19.9711   19.6737 H   0  0  0  0  0  0  0  0  0  0  0  0
   20.8273   18.4114   20.1271 H   0  0  0  0  0  0  0  0  0  0  0  0
  1  2  1  0  0  0  0
  1  3  2  0  0  0  0
  1  4  1  0  0  0  0
  4  5  1  0  0  0  0
  4  6  1  0  0  0  0
  4  7  1  0  0  0  0
  7  8  1  0  0  0  0
  7  9  1  0  0  0  0
  7 10  1  0  0  0  0
 10 11  1  0  0  0  0
 10 12  1  0  0  0  0
 10 13  1  0  0  0  0
M  END
> <VConfSearch Rank>
795

> <Conf_Id>
4

> <Delta U+W>
0.281

> <U+W>
-58.051

> <U>
9.781

> <W>
-67.832

> <W(PB)>
-69.535

> <W(SA)>
1.703

> <Valence>
6.123

> <Coulomb>
3.449

> <VdW>
0.209

> <VdW6>
-3.762

> <VdW12>
3.972

> <Bond>
0.078

> <Angle>
2.428

> <Pdih>
3.616

> <Idih>
0.002

> <Tether>
0.000

$$$$
VeraChem MOL file


 13 12  0  0  0  0  0  0  0  0999 V2000     
   18.7009   19.5544   21.0685 C   0  0  0  0  0  0  0  0  0  0  0  0
   19.0363   20.4779   20.3540 O   0  5  0  0  0  0  0  0  0  0  0  0
   17.8943   18.7090   20.7357 O   0  0  0  0  0  0  0  0  0  0  0  0
   19.2958   19.4694   22.4719 C   0  0  0  0  0  0  0  0  0  0  0  0
   18.4662   19.3027   23.1692 H   0  0  0  0  0  0  0  0  0  0  0  0
   19.7338   20.4421   22.7275 H   0  0  0  0  0  0  0  0  0  0  0  0
   20.3503   18.3466   22.6473 C   0  0  0  0  0  0  0  0  0  0  0  0
   20.6102   18.2599   23.7111 H   0  0  0  0  0  0  0  0  0  0  0  0
   19.9142   17.3828   22.3493 H   0  0  0  0  0  0  0  0  0  0  0  0
   21.6347   18.6107   21.8346 C   0  0  0  0  0  0  0  0  0  0  0  0
   22.0995   19.5597   22.1326 H   0  0  0  0  0  0  0  0  0  0  0  0
   22.3666   17.8086   21.9962 H   0  0  0  0  0  0  0  0  0  0  0  0
   21.4183   18.6593   20.7591 H   0  0  0  0  0  0  0  0  0  0  0  0
  1  2  1  0  0  0  0
  1  3  2  0  0  0  0
  1  4  1  0  0  0  0
  4  5  1  0  0  0  0
  4  6  1  0  0  0  0
  4  7  1  0  0  0  0
  7  8  1  0  0  0  0
  7  9  1  0  0  0  0
  7 10  1  0  0  0  0
 10 11  1  0  0  0  0
 10 12  1  0  0  0  0
 10 13  1  0  0  0  0
M  END
> <VConfSearch Rank>
796

> <Conf_Id>
36

> <Delta U+W>
0.272

> <U+W>
-58.060

> <U>
9.781

> <W>
-67.841

> <W(PB)>
-69.537

> <W(SA)>
1.696

> <Valence>
6.123

> <Coulomb>
3.449

> <VdW>
0.209

> <VdW6>
-3.762

> <VdW12>
3.972

> <Bond>
0.078

> <Angle>
2.428

> <Pdih>
3.616

> <Idih>
0.002

> <Tether>
0.000

$$$$
VeraChem MOL file


 13 12  0  0  0  0  0  0  0  0999 V2000     
   21.6952   18.8682   23.1371 C   0  0  0  0  0  0  0  0  0  0  0  0
   22.5283   18.4101   22.3799 O   0  5  0  0  0  0  0  0  0  0  0  0
   21.9283   19.1218   24.3016 O   0  0  0  0  0  0  0  0  0  0  0  0
   20.2792   19.1489   22.6303 C   0  0  0  0  0  0  0  0  0  0  0  0
   20.0723   20.2111   22.8075 H   0  0  0  0  0  0  0  0  0  0  0  0
   19.5865   18.5783   23.2603 H   0  0  0  0  0  0  0  0  0  0  0  0
   20.0282   18.8097   21.1377 C   0  0  0  0  0  0  0  0  0  0  0  0
   20.7253   19.3803   20.5083 H   0  0  0  0  0  0  0  0  0  0  0  0
   20.2390   17.7456   20.9617 H   0  0  0  0  0  0  0  0  0  0  0  0
   18.5782   19.1247   20.7182 C   0  0  0  0  0  0  0  0  0  0  0  0
   18.3521   20.1903   20.8556 H   0  0  0  0  0  0  0  0  0  0  0  0
   18.4198   18.8783   19.6601 H   0  0  0  0  0  0  0  0  0  0  0  0
   17.8619   18.5424   21.3126 H   0  0  0  0  0  0  0  0  0  0  0  0
  1  2  1  0  0  0  0
  1  3  2  0  0  0  0
  1  4  1  0  0  0  0
  4  5  1  0  0  0  0
  4  6  1  0  0  0  0
  4  7  1  0  0  0  0
  7  8  1  0  0  0  0
  7  9  1  0  0  0  0
  7 10  1  0  0  0  0
 10 11  1  0  0  0  0
 10 12  1  0  0  0  0
 10 13  1  0  0  0  0
M  END
> <VConfSearch Rank>
797

> <Conf_Id>
0

> <Delta U+W>
0.000

> <U+W>
-58.332

> <U>
8.390

> <W>
-66.722

> <W(PB)>
-68.455

> <W(SA)>
1.733

> <Valence>
6.333

> <Coulomb>
1.215

> <VdW>
0.842

> <VdW6>
-3.344

> <VdW12>
4.186

> <Bond>
0.091

> <Angle>
2.713

> <Pdih>
3.529

> <Idih>
0.000

> <Tether>
0.000

$$$$
VeraChem MOL file


 13 12  0  0  0  0  0  0  0  0999 V2000     
   21.1044   20.4412   22.9512 C   0  0  0  0  0  0  0  0  0  0  0  0
   21.4460   21.4458   22.3601 O   0  5  0  0  0  0  0  0  0  0  0  0
   21.6846   20.0059   23.9256 O   0  0  0  0  0  0  0  0  0  0  0  0
   19.8932   19.6746   22.4307 C   0  0  0  0  0  0  0  0  0  0  0  0
   19.1924   20.3978   21.9961 H   0  0  0  0  0  0  0  0  0  0  0  0
   19.3891   19.2104   23.2872 H   0  0  0  0  0  0  0  0  0  0  0  0
   20.2646   18.5972   21.3833 C   0  0  0  0  0  0  0  0  0  0  0  0
   20.7774   19.0720   20.5351 H   0  0  0  0  0  0  0  0  0  0  0  0
   20.9741   17.8844   21.8264 H   0  0  0  0  0  0  0  0  0  0  0  0
   19.0198   17.8410   20.8774 C   0  0  0  0  0  0  0  0  0  0  0  0
   19.3029   17.0821   20.1363 H   0  0  0  0  0  0  0  0  0  0  0  0
   18.5062   17.3326   21.7040 H   0  0  0  0  0  0  0  0  0  0  0  0
   18.3080   18.5293   20.4028 H   0  0  0  0  0  0  0  0  0  0  0  0
  1  2  1  0  0  0  0
  1  3  2  0  0  0  0
  1  4  1  0  0  0  0
  4  5  1  0  0  0  0
  4  6  1  0  0  0  0
  4  7  1  0  0  0  0
  7  8  1  0  0  0  0
  7  9  1  0  0  0  0
  7 10  1  0  0  0  0
 10 11  1  0  0  0  0
 10 12  1  0  0  0  0
 10 13  1  0  0  0  0
M  END
> <VConfSearch Rank>
798

> <Conf_Id>
1

> <Delta U+W>
-1.339

> <U+W>
-59.672

> <U>
7.389

> <W>
-67.061

> <W(PB)>
-68.767

> <W(SA)>
1.707

> <Valence>
5.822

> <Coulomb>
1.255

> <VdW>
0.312

> <VdW6>
-3.061

> <VdW12>
3.372

> <Bond>
0.059

> <Angle>
2.241

> <Pdih>
3.522

> <Idih>
0.000

> <Tether>
0.000

$$$$
VeraChem MOL file


 13 12  0  0  0  0  0  0  0  0999 V2000     
   20.4408   20.4346   21.0175 C   0  0  0  0  0  0  0  0  0  0  0  0
   20.7914   20.2444   19.8700 O   0  5  0  0  0  0  0  0  0  0  0  0
   19.6720   21.3164   21.3454 O   0  0  0  0  0  0  0  0  0  0  0  0
   21.0263   19.5400   22.1073 C   0  0  0  0  0  0  0  0  0  0  0  0
   20.8758   20.0258   23.0793 H   0  0  0  0  0  0  0  0  0  0  0  0
   22.1092   19.4901   21.9426 H   0  0  0  0  0  0  0  0  0  0  0  0
   20.4418   18.1043   22.1318 C   0  0  0  0  0  0  0  0  0  0  0  0
   20.5606   17.6420   21.1418 H   0  0  0  0  0  0  0  0  0  0  0  0
   21.0201   17.4923   22.8374 H   0  0  0  0  0  0  0  0  0  0  0  0
   18.9553   18.0790   22.5436 C   0  0  0  0  0  0  0  0  0  0  0  0
   18.3392   18.6460   21.8331 H   0  0  0  0  0  0  0  0  0  0  0  0
   18.5787   17.0482   22.5701 H   0  0  0  0  0  0  0  0  0  0  0  0
   18.8169   18.5169   23.5409 H   0  0  0  0  0  0  0  0  0  0  0  0
  1  2  1  0  0  0  0
  1  3  2  0  0  0  0
  1  4  1  0  0  0  0
  4  5  1  0  0  0  0
  4  6  1  0  0  0  0
  4  7  1  0  0  0  0
  7  8  1  0  0  0  0
  7  9  1  0  0  0  0
  7 10  1  0  0  0  0
 10 11  1  0  0  0  0
 10 12  1  0  0  0  0
 10 13  1  0  0  0  0
M  END
> <VConfSearch Rank>
799

> <Conf_Id>
4

> <Delta U+W>
0.281

> <U+W>
-58.051

> <U>
9.781

> <W>
-67.832

> <W(PB)>
-69.535

> <W(SA)>
1.703

> <Valence>
6.123

> <Coulomb>
3.449

> <VdW>
0.209

> <VdW6>
-3.762

> <VdW12>
3.972

> <Bond>
0.078

> <Angle>
2.428

> <Pdih>
3.616

> <Idih>
0.002

> <Tether>
0.000

$$$$
VeraChem MOL file


 13 12  0  0  0  0  0  0  0  0999 V2000     
   21.2944   19.8511   23.0187 C   0  0  0  0  0  0  0  0  0  0  0  0
   20.8278   20.0156   24.1283 O   0  5  0  0  0  0  0  0  0  0  0  0
   22.4668   19.6059   22.8149 O   0  0  0  0  0  0  0  0  0  0  0  0
   20.3685   19.9949   21.8134 C   0  0  0  0  0  0  0  0  0  0  0  0
   20.8723   20.6471   21.0900 H   0  0  0  0  0  0  0  0  0  0  0  0
   19.4576   20.5176   22.1304 H   0  0  0  0  0  0  0  0  0  0  0  0
   20.0031   18.6523   21.1300 C   0  0  0  0  0  0  0  0  0  0  0  0
   19.4654   18.8591   20.1946 H   0  0  0  0  0  0  0  0  0  0  0  0
   20.9230   18.1180   20.8538 H   0  0  0  0  0  0  0  0  0  0  0  0
   19.1273   17.7527   22.0264 C   0  0  0  0  0  0  0  0  0  0  0  0
   18.1915   18.2596   22.2962 H   0  0  0  0  0  0  0  0  0  0  0  0
   18.8708   16.8206   21.5062 H   0  0  0  0  0  0  0  0  0  0  0  0
   19.6525   17.4887   22.9539 H   0  0  0  0  0  0  0  0  0  0  0  0
  1  2  1  0  0  0  0
  1  3  2  0  0  0  0
  1  4  1  0  0  0  0
  4  5  1  0  0  0  0
  4  6  1  0  0  0  0
  4  7  1  0  0  0  0
  7  8  1  0  0  0  0
  7  9  1  0  0  0  0
  7 10  1  0  0  0  0
 10 11  1  0  0  0  0
 10 12  1  0  0  0  0
 10 13  1  0  0  0  0
M  END
> <VConfSearch Rank>
800

> <Conf_Id>
36

> <Delta U+W>
0.272

> <U+W>
-58.060

> <U>
9.781

> <W>
-67.841

> <W(PB)>
-69.537

> <W(SA)>
1.696

> <Valence>
6.123

> <Coulomb>
3.449

> <VdW>
0.209

> <VdW6>
-3.762

> <VdW12>
3.972

> <Bond>
0.078

> <Angle>
2.428

> <Pdih>
3.616

> <Idih>
0.002

> <Tether>
0.000

$$$$
VeraChem MOL file


 13 12  0  0  0  0  0  0  0  0999 V2000     
   19.7151   17.9169   23.6315 C   0  0  0  0  0  0  0  0  0  0  0  0
   18.5355   18.1421   23.8186 O   0  5  0  0  0  0  0  0  0  0  0  0
   20.3851   17.2347   24.3802 O   0  0  0  0  0  0  0  0  0  0  0  0
   20.4169   18.5055   22.4060 C   0  0  0  0  0  0  0  0  0  0  0  0
   20.8392   17.6689   21.8368 H   0  0  0  0  0  0  0  0  0  0  0  0
   21.2607   19.1049   22.7680 H   0  0  0  0  0  0  0  0  0  0  0  0
   19.5221   19.3693   21.4790 C   0  0  0  0  0  0  0  0  0  0  0  0
   18.6756   18.7676   21.1197 H   0  0  0  0  0  0  0  0  0  0  0  0
   19.0975   20.2054   22.0520 H   0  0  0  0  0  0  0  0  0  0  0  0
   20.3130   19.9183   20.2744 C   0  0  0  0  0  0  0  0  0  0  0  0
   20.7222   19.1002   19.6672 H   0  0  0  0  0  0  0  0  0  0  0  0
   19.6639   20.5263   19.6307 H   0  0  0  0  0  0  0  0  0  0  0  0
   21.1476   20.5494   20.6070 H   0  0  0  0  0  0  0  0  0  0  0  0
  1  2  1  0  0  0  0
  1  3  2  0  0  0  0
  1  4  1  0  0  0  0
  4  5  1  0  0  0  0
  4  6  1  0  0  0  0
  4  7  1  0  0  0  0
  7  8  1  0  0  0  0
  7  9  1  0  0  0  0
  7 10  1  0  0  0  0
 10 11  1  0  0  0  0
 10 12  1  0  0  0  0
 10 13  1  0  0  0  0
M  END
> <VConfSearch Rank>
801

> <Conf_Id>
0

> <Delta U+W>
0.000

> <U+W>
-58.332

> <U>
8.390

> <W>
-66.722

> <W(PB)>
-68.455

> <W(SA)>
1.733

> <Valence>
6.333

> <Coulomb>
1.215

> <VdW>
0.842

> <VdW6>
-3.344

> <VdW12>
4.186

> <Bond>
0.091

> <Angle>
2.713

> <Pdih>
3.529

> <Idih>
0.000

> <Tether>
0.000

$$$$
VeraChem MOL file


 13 12  0  0  0  0  0  0  0  0999 V2000     
   18.4225   20.1965   21.0157 C   0  0  0  0  0  0  0  0  0  0  0  0
   18.3815   21.3599   21.3623 O   0  5  0  0  0  0  0  0  0  0  0  0
   17.4538   19.5797   20.6200 O   0  0  0  0  0  0  0  0  0  0  0  0
   19.7581   19.4654   21.0998 C   0  0  0  0  0  0  0  0  0  0  0  0
   20.5573   20.1910   20.9054 H   0  0  0  0  0  0  0  0  0  0  0  0
   19.7923   18.7230   20.2932 H   0  0  0  0  0  0  0  0  0  0  0  0
   19.9849   18.7769   22.4674 C   0  0  0  0  0  0  0  0  0  0  0  0
   19.9387   19.5282   23.2681 H   0  0  0  0  0  0  0  0  0  0  0  0
   19.1736   18.0598   22.6557 H   0  0  0  0  0  0  0  0  0  0  0  0
   21.3423   18.0476   22.5203 C   0  0  0  0  0  0  0  0  0  0  0  0
   21.4849   17.5661   23.4966 H   0  0  0  0  0  0  0  0  0  0  0  0
   21.4009   17.2701   21.7471 H   0  0  0  0  0  0  0  0  0  0  0  0
   22.1718   18.7498   22.3643 H   0  0  0  0  0  0  0  0  0  0  0  0
  1  2  1  0  0  0  0
  1  3  2  0  0  0  0
  1  4  1  0  0  0  0
  4  5  1  0  0  0  0
  4  6  1  0  0  0  0
  4  7  1  0  0  0  0
  7  8  1  0  0  0  0
  7  9  1  0  0  0  0
  7 10  1  0  0  0  0
 10 11  1  0  0  0  0
 10 12  1  0  0  0  0
 10 13  1  0  0  0  0
M  END
> <VConfSearch Rank>
802

> <Conf_Id>
1

> <Delta U+W>
-1.339

> <U+W>
-59.672

> <U>
7.389

> <W>
-67.061

> <W(PB)>
-68.767

> <W(SA)>
1.707

> <Valence>
5.822

> <Coulomb>
1.255

> <VdW>
0.312

> <VdW6>
-3.061

> <VdW12>
3.372

> <Bond>
0.059

> <Angle>
2.241

> <Pdih>
3.522

> <Idih>
0.000

> <Tether>
0.000

$$$$
VeraChem MOL file


 13 12  0  0  0  0  0  0  0  0999 V2000     
   20.6464   17.9266   23.3590 C   0  0  0  0  0  0  0  0  0  0  0  0
   20.1698   18.1907   24.4449 O   0  5  0  0  0  0  0  0  0  0  0  0
   20.8184   16.7916   22.9615 O   0  0  0  0  0  0  0  0  0  0  0  0
   21.0844   19.0833   22.4640 C   0  0  0  0  0  0  0  0  0  0  0  0
   21.7652   18.6953   21.6964 H   0  0  0  0  0  0  0  0  0  0  0  0
   21.6676   19.7741   23.0845 H   0  0  0  0  0  0  0  0  0  0  0  0
   19.9126   19.8507   21.7998 C   0  0  0  0  0  0  0  0  0  0  0  0
   19.2153   20.1993   22.5745 H   0  0  0  0  0  0  0  0  0  0  0  0
   20.3059   20.7478   21.3025 H   0  0  0  0  0  0  0  0  0  0  0  0
   19.1556   18.9922   20.7655 C   0  0  0  0  0  0  0  0  0  0  0  0
   18.7100   18.1067   21.2380 H   0  0  0  0  0  0  0  0  0  0  0  0
   18.3465   19.5705   20.3007 H   0  0  0  0  0  0  0  0  0  0  0  0
   19.8303   18.6514   19.9693 H   0  0  0  0  0  0  0  0  0  0  0  0
  1  2  1  0  0  0  0
  1  3  2  0  0  0  0
  1  4  1  0  0  0  0
  4  5  1  0  0  0  0
  4  6  1  0  0  0  0
  4  7  1  0  0  0  0
  7  8  1  0  0  0  0
  7  9  1  0  0  0  0
  7 10  1  0  0  0  0
 10 11  1  0  0  0  0
 10 12  1  0  0  0  0
 10 13  1  0  0  0  0
M  END
> <VConfSearch Rank>
803

> <Conf_Id>
4

> <Delta U+W>
0.281

> <U+W>
-58.051

> <U>
9.781

> <W>
-67.832

> <W(PB)>
-69.535

> <W(SA)>
1.703

> <Valence>
6.123

> <Coulomb>
3.449

> <VdW>
0.209

> <VdW6>
-3.762

> <VdW12>
3.972

> <Bond>
0.078

> <Angle>
2.428

> <Pdih>
3.616

> <Idih>
0.002

> <Tether>
0.000

$$$$
VeraChem MOL file


 13 12  0  0  0  0  0  0  0  0999 V2000     
   20.6326   18.2006   20.4617 C   0  0  0  0  0  0  0  0  0  0  0  0
   19.6541   17.9065   19.8045 O   0  5  0  0  0  0  0  0  0  0  0  0
   21.6641   18.6204   19.9759 O   0  0  0  0  0  0  0  0  0  0  0  0
   20.5784   17.9993   21.9741 C   0  0  0  0  0  0  0  0  0  0  0  0
   21.4924   17.4688   22.2663 H   0  0  0  0  0  0  0  0  0  0  0  0
   19.7376   17.3356   22.2104 H   0  0  0  0  0  0  0  0  0  0  0  0
   20.4642   19.3152   22.7857 C   0  0  0  0  0  0  0  0  0  0  0  0
   20.5835   19.0904   23.8544 H   0  0  0  0  0  0  0  0  0  0  0  0
   21.2877   19.9893   22.5111 H   0  0  0  0  0  0  0  0  0  0  0  0
   19.1132   20.0276   22.5684 C   0  0  0  0  0  0  0  0  0  0  0  0
   18.2763   19.3787   22.8581 H   0  0  0  0  0  0  0  0  0  0  0  0
   19.0574   20.9433   23.1713 H   0  0  0  0  0  0  0  0  0  0  0  0
   18.9796   20.3075   21.5150 H   0  0  0  0  0  0  0  0  0  0  0  0
  1  2  1  0  0  0  0
  1  3  2  0  0  0  0
  1  4  1  0  0  0  0
  4  5  1  0  0  0  0
  4  6  1  0  0  0  0
  4  7  1  0  0  0  0
  7  8  1  0  0  0  0
  7  9  1  0  0  0  0
  7 10  1  0  0  0  0
 10 11  1  0  0  0  0
 10 12  1  0  0  0  0
 10 13  1  0  0  0  0
M  END
> <VConfSearch Rank>
804

> <Conf_Id>
36

> <Delta U+W>
0.272

> <U+W>
-58.060

> <U>
9.781

> <W>
-67.841

> <W(PB)>
-69.537

> <W(SA)>
1.696

> <Valence>
6.123

> <Coulomb>
3.449

> <VdW>
0.209

> <VdW6>
-3.762

> <VdW12>
3.972

> <Bond>
0.078

> <Angle>
2.428

> <Pdih>
3.616

> <Idih>
0.002

> <Tether>
0.000

$$$$
VeraChem MOL file


 13 12  0  0  0  0  0  0  0  0999 V2000     
   20.4048   20.7655   20.6863 C   0  0  0  0  0  0  0  0  0  0  0  0
   21.6198   20.7441   20.6591 O   0  5  0  0  0  0  0  0  0  0  0  0
   19.7466   21.6368   20.1549 O   0  0  0  0  0  0  0  0  0  0  0  0
   19.6407   19.6587   21.4156 C   0  0  0  0  0  0  0  0  0  0  0  0
   18.9634   19.1945   20.6888 H   0  0  0  0  0  0  0  0  0  0  0  0
   19.0137   20.1395   22.1759 H   0  0  0  0  0  0  0  0  0  0  0  0
   20.5224   18.5684   22.0787 C   0  0  0  0  0  0  0  0  0  0  0  0
   21.1520   18.0898   21.3156 H   0  0  0  0  0  0  0  0  0  0  0  0
   21.2024   19.0360   22.8044 H   0  0  0  0  0  0  0  0  0  0  0  0
   19.6679   17.4984   22.7877 C   0  0  0  0  0  0  0  0  0  0  0  0
   19.0006   16.9939   22.0765 H   0  0  0  0  0  0  0  0  0  0  0  0
   20.3085   16.7363   23.2503 H   0  0  0  0  0  0  0  0  0  0  0  0
   19.0513   17.9477   23.5773 H   0  0  0  0  0  0  0  0  0  0  0  0
  1  2  1  0  0  0  0
  1  3  2  0  0  0  0
  1  4  1  0  0  0  0
  4  5  1  0  0  0  0
  4  6  1  0  0  0  0
  4  7  1  0  0  0  0
  7  8  1  0  0  0  0
  7  9  1  0  0  0  0
  7 10  1  0  0  0  0
 10 11  1  0  0  0  0
 10 12  1  0  0  0  0
 10 13  1  0  0  0  0
M  END
> <VConfSearch Rank>
805

> <Conf_Id>
0

> <Delta U+W>
0.000

> <U+W>
-58.332

> <U>
8.390

> <W>
-66.722

> <W(PB)>
-68.455

> <W(SA)>
1.733

> <Valence>
6.333

> <Coulomb>
1.215

> <VdW>
0.842

> <VdW6>
-3.344

> <VdW12>
4.186

> <Bond>
0.091

> <Angle>
2.713

> <Pdih>
3.529

> <Idih>
0.000

> <Tether>
0.000

$$$$
VeraChem MOL file


 13 12  0  0  0  0  0  0  0  0999 V2000     
   18.3147   18.3308   22.9059 C   0  0  0  0  0  0  0  0  0  0  0  0
   17.6452   17.4823   22.3516 O   0  5  0  0  0  0  0  0  0  0  0  0
   17.8829   19.0683   23.7690 O   0  0  0  0  0  0  0  0  0  0  0  0
   19.7708   18.4913   22.4821 C   0  0  0  0  0  0  0  0  0  0  0  0
   20.1517   17.5055   22.1887 H   0  0  0  0  0  0  0  0  0  0  0  0
   20.3477   18.8134   23.3576 H   0  0  0  0  0  0  0  0  0  0  0  0
   19.9548   19.5001   21.3226 C   0  0  0  0  0  0  0  0  0  0  0  0
   19.3650   19.1727   20.4550 H   0  0  0  0  0  0  0  0  0  0  0  0
   19.5611   20.4808   21.6241 H   0  0  0  0  0  0  0  0  0  0  0  0
   21.4361   19.6395   20.9180 C   0  0  0  0  0  0  0  0  0  0  0  0
   21.5463   20.3582   20.0955 H   0  0  0  0  0  0  0  0  0  0  0  0
   22.0420   19.9947   21.7620 H   0  0  0  0  0  0  0  0  0  0  0  0
   21.8443   18.6766   20.5838 H   0  0  0  0  0  0  0  0  0  0  0  0
  1  2  1  0  0  0  0
  1  3  2  0  0  0  0
  1  4  1  0  0  0  0
  4  5  1  0  0  0  0
  4  6  1  0  0  0  0
  4  7  1  0  0  0  0
  7  8  1  0  0  0  0
  7  9  1  0  0  0  0
  7 10  1  0  0  0  0
 10 11  1  0  0  0  0
 10 12  1  0  0  0  0
 10 13  1  0  0  0  0
M  END
> <VConfSearch Rank>
806

> <Conf_Id>
1

> <Delta U+W>
-1.339

> <U+W>
-59.672

> <U>
7.389

> <W>
-67.061

> <W(PB)>
-68.767

> <W(SA)>
1.707

> <Valence>
5.822

> <Coulomb>
1.255

> <VdW>
0.312

> <VdW6>
-3.061

> <VdW12>
3.372

> <Bond>
0.059

> <Angle>
2.241

> <Pdih>
3.522

> <Idih>
0.000

> <Tether>
0.000

$$$$
VeraChem MOL file


 13 12  0  0  0  0  0  0  0  0999 V2000     
   21.3748   19.1551   20.7264 C   0  0  0  0  0  0  0  0  0  0  0  0
   22.3338   18.4137   20.8081 O   0  5  0  0  0  0  0  0  0  0  0  0
   20.8444   19.4503   19.6740 O   0  0  0  0  0  0  0  0  0  0  0  0
   20.8320   19.7751   22.0116 C   0  0  0  0  0  0  0  0  0  0  0  0
   20.2062   20.6369   21.7491 H   0  0  0  0  0  0  0  0  0  0  0  0
   21.6888   20.1655   22.5736 H   0  0  0  0  0  0  0  0  0  0  0  0
   20.0357   18.7893   22.9047 C   0  0  0  0  0  0  0  0  0  0  0  0
   20.6573   17.9108   23.1275 H   0  0  0  0  0  0  0  0  0  0  0  0
   19.8157   19.2724   23.8665 H   0  0  0  0  0  0  0  0  0  0  0  0
   18.7121   18.3392   22.2525 C   0  0  0  0  0  0  0  0  0  0  0  0
   18.8972   17.8116   21.3074 H   0  0  0  0  0  0  0  0  0  0  0  0
   18.1647   17.6590   22.9178 H   0  0  0  0  0  0  0  0  0  0  0  0
   18.0656   19.2011   22.0414 H   0  0  0  0  0  0  0  0  0  0  0  0
  1  2  1  0  0  0  0
  1  3  2  0  0  0  0
  1  4  1  0  0  0  0
  4  5  1  0  0  0  0
  4  6  1  0  0  0  0
  4  7  1  0  0  0  0
  7  8  1  0  0  0  0
  7  9  1  0  0  0  0
  7 10  1  0  0  0  0
 10 11  1  0  0  0  0
 10 12  1  0  0  0  0
 10 13  1  0  0  0  0
M  END
> <VConfSearch Rank>
807

> <Conf_Id>
4

> <Delta U+W>
0.281

> <U+W>
-58.051

> <U>
9.781

> <W>
-67.832

> <W(PB)>
-69.535

> <W(SA)>
1.703

> <Valence>
6.123

> <Coulomb>
3.449

> <VdW>
0.209

> <VdW6>
-3.762

> <VdW12>
3.972

> <Bond>
0.078

> <Angle>
2.428

> <Pdih>
3.616

> <Idih>
0.002

> <Tether>
0.000

$$$$
VeraChem MOL file


 13 12  0  0  0  0  0  0  0  0999 V2000     
   20.9511   19.7229   20.6020 C   0  0  0  0  0  0  0  0  0  0  0  0
   21.1780   18.8793   19.7577 O   0  5  0  0  0  0  0  0  0  0  0  0
   20.6240   20.8629   20.3385 O   0  0  0  0  0  0  0  0  0  0  0  0
   21.1196   19.3432   22.0710 C   0  0  0  0  0  0  0  0  0  0  0  0
   21.7161   20.1311   22.5461 H   0  0  0  0  0  0  0  0  0  0  0  0
   21.7096   18.4203   22.1300 H   0  0  0  0  0  0  0  0  0  0  0  0
   19.7842   19.1731   22.8398 C   0  0  0  0  0  0  0  0  0  0  0  0
   19.9982   19.0517   23.9105 H   0  0  0  0  0  0  0  0  0  0  0  0
   19.1832   20.0879   22.7397 H   0  0  0  0  0  0  0  0  0  0  0  0
   18.9702   17.9585   22.3478 C   0  0  0  0  0  0  0  0  0  0  0  0
   19.5448   17.0297   22.4598 H   0  0  0  0  0  0  0  0  0  0  0  0
   18.0421   17.8554   22.9249 H   0  0  0  0  0  0  0  0  0  0  0  0
   18.6999   18.0673   21.2891 H   0  0  0  0  0  0  0  0  0  0  0  0
  1  2  1  0  0  0  0
  1  3  2  0  0  0  0
  1  4  1  0  0  0  0
  4  5  1  0  0  0  0
  4  6  1  0  0  0  0
  4  7  1  0  0  0  0
  7  8  1  0  0  0  0
  7  9  1  0  0  0  0
  7 10  1  0  0  0  0
 10 11  1  0  0  0  0
 10 12  1  0  0  0  0
 10 13  1  0  0  0  0
M  END
> <VConfSearch Rank>
808

> <Conf_Id>
36

> <Delta U+W>
0.272

> <U+W>
-58.060

> <U>
9.781

> <W>
-67.841

> <W(PB)>
-69.537

> <W(SA)>
1.696

> <Valence>
6.123

> <Coulomb>
3.449

> <VdW>
0.209

> <VdW6>
-3.762

> <VdW12>
3.972

> <Bond>
0.078

> <Angle>
2.428

> <Pdih>
3.616

> <Idih>
0.002

> <Tether>
0.000

$$$$
VeraChem MOL file


 13 12  0  0  0  0  0  0  0  0999 V2000     
   21.0406   17.4789   20.7276 C   0  0  0  0  0  0  0  0  0  0  0  0
   20.1049   16.9776   20.1355 O   0  5  0  0  0  0  0  0  0  0  0  0
   22.1843   17.0883   20.6083 O   0  0  0  0  0  0  0  0  0  0  0  0
   20.7992   18.6568   21.6736 C   0  0  0  0  0  0  0  0  0  0  0  0
   21.4211   19.4899   21.3250 H   0  0  0  0  0  0  0  0  0  0  0  0
   21.1769   18.3666   22.6613 H   0  0  0  0  0  0  0  0  0  0  0  0
   19.3240   19.1208   21.7940 C   0  0  0  0  0  0  0  0  0  0  0  0
   18.9466   19.4083   20.8028 H   0  0  0  0  0  0  0  0  0  0  0  0
   18.7020   18.2837   22.1406 H   0  0  0  0  0  0  0  0  0  0  0  0
   19.1783   20.3089   22.7661 C   0  0  0  0  0  0  0  0  0  0  0  0
   19.7670   21.1704   22.4247 H   0  0  0  0  0  0  0  0  0  0  0  0
   18.1288   20.6228   22.8382 H   0  0  0  0  0  0  0  0  0  0  0  0
   19.5206   20.0367   23.7733 H   0  0  0  0  0  0  0  0  0  0  0  0
  1  2  1  0  0  0  0
  1  3  2  0  0  0  0
  1  4  1  0  0  0  0
  4  5  1  0  0  0  0
  4  6  1  0  0  0  0
  4  7  1  0  0  0  0
  7  8  1  0  0  0  0
  7  9  1  0  0  0  0
  7 10  1  0  0  0  0
 10 11  1  0  0  0  0
 10 12  1  0  0  0  0
 10 13  1  0  0  0  0
M  END
> <VConfSearch Rank>
809

> <Conf_Id>
0

> <Delta U+W>
0.000

> <U+W>
-58.332

> <U>
8.390

> <W>
-66.722

> <W(PB)>
-68.455

> <W(SA)>
1.733

> <Valence>
6.333

> <Coulomb>
1.215

> <VdW>
0.842

> <VdW6>
-3.344

> <VdW12>
4.186

> <Bond>
0.091

> <Angle>
2.713

> <Pdih>
3.529

> <Idih>
0.000

> <Tether>
0.000

$$$$
VeraChem MOL file


 13 12  0  0  0  0  0  0  0  0999 V2000     
   20.9173   20.6861   20.8896 C   0  0  0  0  0  0  0  0  0  0  0  0
   21.6029   20.4297   19.9204 O   0  5  0  0  0  0  0  0  0  0  0  0
   21.0676   21.6780   21.5744 O   0  0  0  0  0  0  0  0  0  0  0  0
   19.8209   19.7003   21.2788 C   0  0  0  0  0  0  0  0  0  0  0  0
   19.4365   19.2376   20.3617 H   0  0  0  0  0  0  0  0  0  0  0  0
   18.9950   20.2671   21.7257 H   0  0  0  0  0  0  0  0  0  0  0  0
   20.3107   18.6088   22.2611 C   0  0  0  0  0  0  0  0  0  0  0  0
   21.1439   18.0544   21.8071 H   0  0  0  0  0  0  0  0  0  0  0  0
   20.7022   19.0841   23.1714 H   0  0  0  0  0  0  0  0  0  0  0  0
   19.1801   17.6291   22.6344 C   0  0  0  0  0  0  0  0  0  0  0  0
   19.5463   16.8635   23.3308 H   0  0  0  0  0  0  0  0  0  0  0  0
   18.3471   18.1565   23.1177 H   0  0  0  0  0  0  0  0  0  0  0  0
   18.7922   17.1189   21.7430 H   0  0  0  0  0  0  0  0  0  0  0  0
  1  2  1  0  0  0  0
  1  3  2  0  0  0  0
  1  4  1  0  0  0  0
  4  5  1  0  0  0  0
  4  6  1  0  0  0  0
  4  7  1  0  0  0  0
  7  8  1  0  0  0  0
  7  9  1  0  0  0  0
  7 10  1  0  0  0  0
 10 11  1  0  0  0  0
 10 12  1  0  0  0  0
 10 13  1  0  0  0  0
M  END
> <VConfSearch Rank>
810

> <Conf_Id>
1

> <Delta U+W>
-1.339

> <U+W>
-59.672

> <U>
7.389

> <W>
-67.061

> <W(PB)>
-68.767

> <W(SA)>
1.707

> <Valence>
5.822

> <Coulomb>
1.255

> <VdW>
0.312

> <VdW6>
-3.061

> <VdW12>
3.372

> <Bond>
0.059

> <Angle>
2.241

> <Pdih>
3.522

> <Idih>
0.000

> <Tether>
0.000

$$$$
VeraChem MOL file


 13 12  0  0  0  0  0  0  0  0999 V2000     
   20.2723   17.5263   23.0513 C   0  0  0  0  0  0  0  0  0  0  0  0
   20.0829   17.7113   24.2370 O   0  5  0  0  0  0  0  0  0  0  0  0
   19.8774   16.5439   22.4555 O   0  0  0  0  0  0  0  0  0  0  0  0
   21.0798   18.5671   22.2797 C   0  0  0  0  0  0  0  0  0  0  0  0
   21.4298   18.1166   21.3428 H   0  0  0  0  0  0  0  0  0  0  0  0
   21.9725   18.7949   22.8744 H   0  0  0  0  0  0  0  0  0  0  0  0
   20.3078   19.8789   21.9856 C   0  0  0  0  0  0  0  0  0  0  0  0
   19.9263   20.3000   22.9264 H   0  0  0  0  0  0  0  0  0  0  0  0
   21.0030   20.6196   21.5673 H   0  0  0  0  0  0  0  0  0  0  0  0
   19.1413   19.6687   20.9981 C   0  0  0  0  0  0  0  0  0  0  0  0
   18.4022   18.9655   21.4043 H   0  0  0  0  0  0  0  0  0  0  0  0
   18.6291   20.6185   20.7965 H   0  0  0  0  0  0  0  0  0  0  0  0
   19.5038   19.2687   20.0420 H   0  0  0  0  0  0  0  0  0  0  0  0
  1  2  1  0  0  0  0
  1  3  2  0  0  0  0
  1  4  1  0  0  0  0
  4  5  1  0  0  0  0
  4  6  1  0  0  0  0
  4  7  1  0  0  0  0
  7  8  1  0  0  0  0
  7  9  1  0  0  0  0
  7 10  1  0  0  0  0
 10 11  1  0  0  0  0
 10 12  1  0  0  0  0
 10 13  1  0  0  0  0
M  END
> <VConfSearch Rank>
811

> <Conf_Id>
4

> <Delta U+W>
0.281

> <U+W>
-58.051

> <U>
9.781

> <W>
-67.832

> <W(PB)>
-69.535

> <W(SA)>
1.703

> <Valence>
6.123

> <Coulomb>
3.449

> <VdW>
0.209

> <VdW6>
-3.762

> <VdW12>
3.972

> <Bond>
0.078

> <Angle>
2.428

> <Pdih>
3.616

> <Idih>
0.002

> <Tether>
0.000

$$$$
VeraChem MOL file


 13 12  0  0  0  0  0  0  0  0999 V2000     
   18.4972   19.2412   22.7125 C   0  0  0  0  0  0  0  0  0  0  0  0
   17.9273   20.1254   22.1049 O   0  5  0  0  0  0  0  0  0  0  0  0
   17.9335   18.2567   23.1475 O   0  0  0  0  0  0  0  0  0  0  0  0
   19.9937   19.3896   22.9758 C   0  0  0  0  0  0  0  0  0  0  0  0
   20.1616   19.1755   24.0380 H   0  0  0  0  0  0  0  0  0  0  0  0
   20.2766   20.4372   22.8152 H   0  0  0  0  0  0  0  0  0  0  0  0
   20.8849   18.4580   22.1149 C   0  0  0  0  0  0  0  0  0  0  0  0
   21.9218   18.5205   22.4725 H   0  0  0  0  0  0  0  0  0  0  0  0
   20.5662   17.4150   22.2514 H   0  0  0  0  0  0  0  0  0  0  0  0
   20.8459   18.8228   20.6165 C   0  0  0  0  0  0  0  0  0  0  0  0
   21.1822   19.8554   20.4551 H   0  0  0  0  0  0  0  0  0  0  0  0
   21.5014   18.1579   20.0392 H   0  0  0  0  0  0  0  0  0  0  0  0
   19.8287   18.7280   20.2136 H   0  0  0  0  0  0  0  0  0  0  0  0
  1  2  1  0  0  0  0
  1  3  2  0  0  0  0
  1  4  1  0  0  0  0
  4  5  1  0  0  0  0
  4  6  1  0  0  0  0
  4  7  1  0  0  0  0
  7  8  1  0  0  0  0
  7  9  1  0  0  0  0
  7 10  1  0  0  0  0
 10 11  1  0  0  0  0
 10 12  1  0  0  0  0
 10 13  1  0  0  0  0
M  END
> <VConfSearch Rank>
812

> <Conf_Id>
36

> <Delta U+W>
0.272

> <U+W>
-58.060

> <U>
9.781

> <W>
-67.841

> <W(PB)>
-69.537

> <W(SA)>
1.696

> <Valence>
6.123

> <Coulomb>
3.449

> <VdW>
0.209

> <VdW6>
-3.762

> <VdW12>
3.972

> <Bond>
0.078

> <Angle>
2.428

> <Pdih>
3.616

> <Idih>
0.002

> <Tether>
0.000

$$$$
VeraChem MOL file


 13 12  0  0  0  0  0  0  0  0999 V2000     
   18.7207   17.4324   21.1942 C   0  0  0  0  0  0  0  0  0  0  0  0
   18.0155   18.0387   20.4116 O   0  5  0  0  0  0  0  0  0  0  0  0
   18.5785   16.2503   21.4337 O   0  0  0  0  0  0  0  0  0  0  0  0
   19.8472   18.1635   21.9271 C   0  0  0  0  0  0  0  0  0  0  0  0
   20.7829   17.6419   21.6932 H   0  0  0  0  0  0  0  0  0  0  0  0
   19.6723   18.0407   23.0025 H   0  0  0  0  0  0  0  0  0  0  0  0
   19.9909   19.6706   21.5898 C   0  0  0  0  0  0  0  0  0  0  0  0
   20.1632   19.7916   20.5111 H   0  0  0  0  0  0  0  0  0  0  0  0
   19.0512   20.1910   21.8220 H   0  0  0  0  0  0  0  0  0  0  0  0
   21.1484   20.3218   22.3734 C   0  0  0  0  0  0  0  0  0  0  0  0
   22.1051   19.8389   22.1346 H   0  0  0  0  0  0  0  0  0  0  0  0
   21.2344   21.3869   22.1219 H   0  0  0  0  0  0  0  0  0  0  0  0
   20.9841   20.2414   23.4560 H   0  0  0  0  0  0  0  0  0  0  0  0
  1  2  1  0  0  0  0
  1  3  2  0  0  0  0
  1  4  1  0  0  0  0
  4  5  1  0  0  0  0
  4  6  1  0  0  0  0
  4  7  1  0  0  0  0
  7  8  1  0  0  0  0
  7  9  1  0  0  0  0
  7 10  1  0  0  0  0
 10 11  1  0  0  0  0
 10 12  1  0  0  0  0
 10 13  1  0  0  0  0
M  END
> <VConfSearch Rank>
813

> <Conf_Id>
0

> <Delta U+W>
0.000

> <U+W>
-58.332

> <U>
8.390

> <W>
-66.722

> <W(PB)>
-68.455

> <W(SA)>
1.733

> <Valence>
6.333

> <Coulomb>
1.215

> <VdW>
0.842

> <VdW6>
-3.344

> <VdW12>
4.186

> <Bond>
0.091

> <Angle>
2.713

> <Pdih>
3.529

> <Idih>
0.000

> <Tether>
0.000

$$$$
VeraChem MOL file


 13 12  0  0  0  0  0  0  0  0999 V2000     
   19.1730   20.7230   20.8523 C   0  0  0  0  0  0  0  0  0  0  0  0
   19.2095   21.7690   21.4686 O   0  5  0  0  0  0  0  0  0  0  0  0
   18.3689   20.4905   19.9721 O   0  0  0  0  0  0  0  0  0  0  0  0
   20.1788   19.6360   21.2161 C   0  0  0  0  0  0  0  0  0  0  0  0
   21.1061   20.1236   21.5407 H   0  0  0  0  0  0  0  0  0  0  0  0
   20.4129   19.0693   20.3066 H   0  0  0  0  0  0  0  0  0  0  0  0
   19.6639   18.6816   22.3206 C   0  0  0  0  0  0  0  0  0  0  0  0
   19.4234   19.2612   23.2228 H   0  0  0  0  0  0  0  0  0  0  0  0
   18.7302   18.2065   21.9884 H   0  0  0  0  0  0  0  0  0  0  0  0
   20.7027   17.5955   22.6652 C   0  0  0  0  0  0  0  0  0  0  0  0
   20.3199   16.9293   23.4493 H   0  0  0  0  0  0  0  0  0  0  0  0
   20.9373   16.9830   21.7847 H   0  0  0  0  0  0  0  0  0  0  0  0
   21.6359   18.0457   23.0286 H   0  0  0  0  0  0  0  0  0  0  0  0
  1  2  1  0  0  0  0
  1  3  2  0  0  0  0
  1  4  1  0  0  0  0
  4  5  1  0  0  0  0
  4  6  1  0  0  0  0
  4  7  1  0  0  0  0
  7  8  1  0  0  0  0
  7  9  1  0  0  0  0
  7 10  1  0  0  0  0
 10 11  1  0  0  0  0
 10 12  1  0  0  0  0
 10 13  1  0  0  0  0
M  END
> <VConfSearch Rank>
814

> <Conf_Id>
1

> <Delta U+W>
-1.339

> <U+W>
-59.672

> <U>
7.389

> <W>
-67.061

> <W(PB)>
-68.767

> <W(SA)>
1.707

> <Valence>
5.822

> <Coulomb>
1.255

> <VdW>
0.312

> <VdW6>
-3.061

> <VdW12>
3.372

> <Bond>
0.059

> <Angle>
2.241

> <Pdih>
3.522

> <Idih>
0.000

> <Tether>
0.000

$$$$
VeraChem MOL file


 13 12  0  0  0  0  0  0  0  0999 V2000     
   20.1111   20.0785   23.4029 C   0  0  0  0  0  0  0  0  0  0  0  0
   19.0678   20.6667   23.6073 O   0  5  0  0  0  0  0  0  0  0  0  0
   20.8081   19.6241   24.2881 O   0  0  0  0  0  0  0  0  0  0  0  0
   20.5866   19.9358   21.9592 C   0  0  0  0  0  0  0  0  0  0  0  0
   21.6545   19.6850   21.9641 H   0  0  0  0  0  0  0  0  0  0  0  0
   20.4948   20.9207   21.4858 H   0  0  0  0  0  0  0  0  0  0  0  0
   19.7964   18.8902   21.1312 C   0  0  0  0  0  0  0  0  0  0  0  0
   18.7238   19.1272   21.1670 H   0  0  0  0  0  0  0  0  0  0  0  0
   20.1002   18.9612   20.0778 H   0  0  0  0  0  0  0  0  0  0  0  0
   20.0281   17.4477   21.6264 C   0  0  0  0  0  0  0  0  0  0  0  0
   19.6934   17.3285   22.6654 H   0  0  0  0  0  0  0  0  0  0  0  0
   19.4711   16.7321   21.0077 H   0  0  0  0  0  0  0  0  0  0  0  0
   21.0923   17.1823   21.5779 H   0  0  0  0  0  0  0  0  0  0  0  0
  1  2  1  0  0  0  0
  1  3  2  0  0  0  0
  1  4  1  0  0  0  0
  4  5  1  0  0  0  0
  4  6  1  0  0  0  0
  4  7  1  0  0  0  0
  7  8  1  0  0  0  0
  7  9  1  0  0  0  0
  7 10  1  0  0  0  0
 10 11  1  0  0  0  0
 10 12  1  0  0  0  0
 10 13  1  0  0  0  0
M  END
> <VConfSearch Rank>
815

> <Conf_Id>
4

> <Delta U+W>
0.281

> <U+W>
-58.051

> <U>
9.781

> <W>
-67.832

> <W(PB)>
-69.535

> <W(SA)>
1.703

> <Valence>
6.123

> <Coulomb>
3.449

> <VdW>
0.209

> <VdW6>
-3.762

> <VdW12>
3.972

> <Bond>
0.078

> <Angle>
2.428

> <Pdih>
3.616

> <Idih>
0.002

> <Tether>
0.000

$$$$
VeraChem MOL file


 13 12  0  0  0  0  0  0  0  0999 V2000     
   19.7090   20.6273   21.4573 C   0  0  0  0  0  0  0  0  0  0  0  0
   19.3778   20.6058   20.2886 O   0  5  0  0  0  0  0  0  0  0  0  0
   19.1881   21.3450   22.2878 O   0  0  0  0  0  0  0  0  0  0  0  0
   20.8638   19.7326   21.9009 C   0  0  0  0  0  0  0  0  0  0  0  0
   21.5492   20.3521   22.4915 H   0  0  0  0  0  0  0  0  0  0  0  0
   21.4176   19.4069   21.0118 H   0  0  0  0  0  0  0  0  0  0  0  0
   20.4283   18.5031   22.7388 C   0  0  0  0  0  0  0  0  0  0  0  0
   21.3222   18.0054   23.1389 H   0  0  0  0  0  0  0  0  0  0  0  0
   19.8393   18.8378   23.6042 H   0  0  0  0  0  0  0  0  0  0  0  0
   19.6118   17.4863   21.9147 C   0  0  0  0  0  0  0  0  0  0  0  0
   20.1909   17.1216   21.0562 H   0  0  0  0  0  0  0  0  0  0  0  0
   19.3368   16.6206   22.5312 H   0  0  0  0  0  0  0  0  0  0  0  0
   18.6861   17.9387   21.5349 H   0  0  0  0  0  0  0  0  0  0  0  0
  1  2  1  0  0  0  0
  1  3  2  0  0  0  0
  1  4  1  0  0  0  0
  4  5  1  0  0  0  0
  4  6  1  0  0  0  0
  4  7  1  0  0  0  0
  7  8  1  0  0  0  0
  7  9  1  0  0  0  0
  7 10  1  0  0  0  0
 10 11  1  0  0  0  0
 10 12  1  0  0  0  0
 10 13  1  0  0  0  0
M  END
> <VConfSearch Rank>
816

> <Conf_Id>
36

> <Delta U+W>
0.272

> <U+W>
-58.060

> <U>
9.781

> <W>
-67.841

> <W(PB)>
-69.537

> <W(SA)>
1.696

> <Valence>
6.123

> <Coulomb>
3.449

> <VdW>
0.209

> <VdW6>
-3.762

> <VdW12>
3.972

> <Bond>
0.078

> <Angle>
2.428

> <Pdih>
3.616

> <Idih>
0.002

> <Tether>
0.000

$$$$
VeraChem MOL file


 13 12  0  0  0  0  0  0  0  0999 V2000     
   20.4818   17.7098   20.1868 C   0  0  0  0  0  0  0  0  0  0  0  0
   21.6948   17.7863   20.1872 O   0  5  0  0  0  0  0  0  0  0  0  0
   19.8622   17.0304   19.3934 O   0  0  0  0  0  0  0  0  0  0  0  0
   19.6698   18.4933   21.2199 C   0  0  0  0  0  0  0  0  0  0  0  0
   19.0614   17.7699   21.7757 H   0  0  0  0  0  0  0  0  0  0  0  0
   18.9757   19.1396   20.6696 H   0  0  0  0  0  0  0  0  0  0  0  0
   20.5031   19.3464   22.2118 C   0  0  0  0  0  0  0  0  0  0  0  0
   21.2000   18.6973   22.7602 H   0  0  0  0  0  0  0  0  0  0  0  0
   21.1143   20.0687   21.6527 H   0  0  0  0  0  0  0  0  0  0  0  0
   19.6024   20.0983   23.2124 C   0  0  0  0  0  0  0  0  0  0  0  0
   19.0030   19.3957   23.8063 H   0  0  0  0  0  0  0  0  0  0  0  0
   20.2092   20.6958   23.9053 H   0  0  0  0  0  0  0  0  0  0  0  0
   18.9166   20.7780   22.6899 H   0  0  0  0  0  0  0  0  0  0  0  0
  1  2  1  0  0  0  0
  1  3  2  0  0  0  0
  1  4  1  0  0  0  0
  4  5  1  0  0  0  0
  4  6  1  0  0  0  0
  4  7  1  0  0  0  0
  7  8  1  0  0  0  0
  7  9  1  0  0  0  0
  7 10  1  0  0  0  0
 10 11  1  0  0  0  0
 10 12  1  0  0  0  0
 10 13  1  0  0  0  0
M  END
> <VConfSearch Rank>
817

> <Conf_Id>
0

> <Delta U+W>
0.000

> <U+W>
-58.332

> <U>
8.390

> <W>
-66.722

> <W(PB)>
-68.455

> <W(SA)>
1.733

> <Valence>
6.333

> <Coulomb>
1.215

> <VdW>
0.842

> <VdW6>
-3.344

> <VdW12>
4.186

> <Bond>
0.091

> <Angle>
2.713

> <Pdih>
3.529

> <Idih>
0.000

> <Tether>
0.000

$$$$
VeraChem MOL file


 13 12  0  0  0  0  0  0  0  0999 V2000     
   18.9590   19.4845   23.6210 C   0  0  0  0  0  0  0  0  0  0  0  0
   17.8528   19.9696   23.4933 O   0  5  0  0  0  0  0  0  0  0  0  0
   19.6475   19.6348   24.6103 O   0  0  0  0  0  0  0  0  0  0  0  0
   19.5215   18.6580   22.4695 C   0  0  0  0  0  0  0  0  0  0  0  0
   18.6850   18.1530   21.9712 H   0  0  0  0  0  0  0  0  0  0  0  0
   20.1650   17.8769   22.8924 H   0  0  0  0  0  0  0  0  0  0  0  0
   20.3158   19.5072   21.4478 C   0  0  0  0  0  0  0  0  0  0  0  0
   19.6644   20.2920   21.0385 H   0  0  0  0  0  0  0  0  0  0  0  0
   21.1448   20.0157   21.9598 H   0  0  0  0  0  0  0  0  0  0  0  0
   20.8705   18.6433   20.2975 C   0  0  0  0  0  0  0  0  0  0  0  0
   21.4301   19.2624   19.5841 H   0  0  0  0  0  0  0  0  0  0  0  0
   21.5490   17.8692   20.6795 H   0  0  0  0  0  0  0  0  0  0  0  0
   20.0573   18.1476   19.7511 H   0  0  0  0  0  0  0  0  0  0  0  0
  1  2  1  0  0  0  0
  1  3  2  0  0  0  0
  1  4  1  0  0  0  0
  4  5  1  0  0  0  0
  4  6  1  0  0  0  0
  4  7  1  0  0  0  0
  7  8  1  0  0  0  0
  7  9  1  0  0  0  0
  7 10  1  0  0  0  0
 10 11  1  0  0  0  0
 10 12  1  0  0  0  0
 10 13  1  0  0  0  0
M  END
> <VConfSearch Rank>
818

> <Conf_Id>
1

> <Delta U+W>
-1.339

> <U+W>
-59.672

> <U>
7.389

> <W>
-67.061

> <W(PB)>
-68.767

> <W(SA)>
1.707

> <Valence>
5.822

> <Coulomb>
1.255

> <VdW>
0.312

> <VdW6>
-3.061

> <VdW12>
3.372

> <Bond>
0.059

> <Angle>
2.241

> <Pdih>
3.522

> <Idih>
0.000

> <Tether>
0.000

$$$$
VeraChem MOL file


 13 12  0  0  0  0  0  0  0  0999 V2000     
   20.5814   17.2394   21.8715 C   0  0  0  0  0  0  0  0  0  0  0  0
   21.4547   16.9753   21.0693 O   0  5  0  0  0  0  0  0  0  0  0  0
   20.4947   16.7150   22.9639 O   0  0  0  0  0  0  0  0  0  0  0  0
   19.5177   18.2579   21.4690 C   0  0  0  0  0  0  0  0  0  0  0  0
   18.6549   18.1477   22.1373 H   0  0  0  0  0  0  0  0  0  0  0  0
   19.1745   17.9918   20.4622 H   0  0  0  0  0  0  0  0  0  0  0  0
   20.0121   19.7273   21.4735 C   0  0  0  0  0  0  0  0  0  0  0  0
   20.9012   19.8181   20.8337 H   0  0  0  0  0  0  0  0  0  0  0  0
   19.2379   20.3688   21.0309 H   0  0  0  0  0  0  0  0  0  0  0  0
   20.3375   20.2363   22.8930 C   0  0  0  0  0  0  0  0  0  0  0  0
   21.1411   19.6438   23.3502 H   0  0  0  0  0  0  0  0  0  0  0  0
   20.6651   21.2837   22.8627 H   0  0  0  0  0  0  0  0  0  0  0  0
   19.4554   20.1750   23.5437 H   0  0  0  0  0  0  0  0  0  0  0  0
  1  2  1  0  0  0  0
  1  3  2  0  0  0  0
  1  4  1  0  0  0  0
  4  5  1  0  0  0  0
  4  6  1  0  0  0  0
  4  7  1  0  0  0  0
  7  8  1  0  0  0  0
  7  9  1  0  0  0  0
  7 10  1  0  0  0  0
 10 11  1  0  0  0  0
 10 12  1  0  0  0  0
 10 13  1  0  0  0  0
M  END
> <VConfSearch Rank>
819

> <Conf_Id>
4

> <Delta U+W>
0.281

> <U+W>
-58.051

> <U>
9.781

> <W>
-67.832

> <W(PB)>
-69.535

> <W(SA)>
1.703

> <Valence>
6.123

> <Coulomb>
3.449

> <VdW>
0.209

> <VdW6>
-3.762

> <VdW12>
3.972

> <Bond>
0.078

> <Angle>
2.428

> <Pdih>
3.616

> <Idih>
0.002

> <Tether>
0.000

$$$$
VeraChem MOL file


 13 12  0  0  0  0  0  0  0  0999 V2000     
   21.1602   20.0470   21.0179 C   0  0  0  0  0  0  0  0  0  0  0  0
   21.0954   19.7250   19.8482 O   0  5  0  0  0  0  0  0  0  0  0  0
   21.2337   21.2006   21.3918 O   0  0  0  0  0  0  0  0  0  0  0  0
   21.1871   18.9445   22.0736 C   0  0  0  0  0  0  0  0  0  0  0  0
   22.0108   19.1703   22.7613 H   0  0  0  0  0  0  0  0  0  0  0  0
   21.4348   17.9948   21.5838 H   0  0  0  0  0  0  0  0  0  0  0  0
   19.8688   18.8030   22.8770 C   0  0  0  0  0  0  0  0  0  0  0  0
   20.0262   18.0992   23.7057 H   0  0  0  0  0  0  0  0  0  0  0  0
   19.6082   19.7701   23.3293 H   0  0  0  0  0  0  0  0  0  0  0  0
   18.6977   18.3024   22.0064 C   0  0  0  0  0  0  0  0  0  0  0  0
   18.9287   17.3254   21.5620 H   0  0  0  0  0  0  0  0  0  0  0  0
   17.7864   18.1946   22.6088 H   0  0  0  0  0  0  0  0  0  0  0  0
   18.4830   19.0062   21.1913 H   0  0  0  0  0  0  0  0  0  0  0  0
  1  2  1  0  0  0  0
  1  3  2  0  0  0  0
  1  4  1  0  0  0  0
  4  5  1  0  0  0  0
  4  6  1  0  0  0  0
  4  7  1  0  0  0  0
  7  8  1  0  0  0  0
  7  9  1  0  0  0  0
  7 10  1  0  0  0  0
 10 11  1  0  0  0  0
 10 12  1  0  0  0  0
 10 13  1  0  0  0  0
M  END
> <VConfSearch Rank>
820

> <Conf_Id>
36

> <Delta U+W>
0.272

> <U+W>
-58.060

> <U>
9.781

> <W>
-67.841

> <W(PB)>
-69.537

> <W(SA)>
1.696

> <Valence>
6.123

> <Coulomb>
3.449

> <VdW>
0.209

> <VdW6>
-3.762

> <VdW12>
3.972

> <Bond>
0.078

> <Angle>
2.428

> <Pdih>
3.616

> <Idih>
0.002

> <Tether>
0.000

$$$$
VeraChem MOL file


 13 12  0  0  0  0  0  0  0  0999 V2000     
   18.4605   19.9328   20.7079 C   0  0  0  0  0  0  0  0  0  0  0  0
   18.1591   20.8296   21.4710 O   0  5  0  0  0  0  0  0  0  0  0  0
   17.9116   19.7622   19.6381 O   0  0  0  0  0  0  0  0  0  0  0  0
   19.5779   18.9577   21.0837 C   0  0  0  0  0  0  0  0  0  0  0  0
   20.3328   19.0026   20.2896 H   0  0  0  0  0  0  0  0  0  0  0  0
   19.1519   17.9475   21.0637 H   0  0  0  0  0  0  0  0  0  0  0  0
   20.2495   19.2144   22.4581 C   0  0  0  0  0  0  0  0  0  0  0  0
   20.6733   20.2282   22.4771 H   0  0  0  0  0  0  0  0  0  0  0  0
   19.4909   19.1719   23.2521 H   0  0  0  0  0  0  0  0  0  0  0  0
   21.3602   18.1854   22.7502 C   0  0  0  0  0  0  0  0  0  0  0  0
   22.1476   18.2296   21.9863 H   0  0  0  0  0  0  0  0  0  0  0  0
   21.8232   18.3829   23.7259 H   0  0  0  0  0  0  0  0  0  0  0  0
   20.9557   17.1648   22.7674 H   0  0  0  0  0  0  0  0  0  0  0  0
  1  2  1  0  0  0  0
  1  3  2  0  0  0  0
  1  4  1  0  0  0  0
  4  5  1  0  0  0  0
  4  6  1  0  0  0  0
  4  7  1  0  0  0  0
  7  8  1  0  0  0  0
  7  9  1  0  0  0  0
  7 10  1  0  0  0  0
 10 11  1  0  0  0  0
 10 12  1  0  0  0  0
 10 13  1  0  0  0  0
M  END
> <VConfSearch Rank>
821

> <Conf_Id>
0

> <Delta U+W>
0.000

> <U+W>
-58.332

> <U>
8.390

> <W>
-66.722

> <W(PB)>
-68.455

> <W(SA)>
1.733

> <Valence>
6.333

> <Coulomb>
1.215

> <VdW>
0.842

> <VdW6>
-3.344

> <VdW12>
4.186

> <Bond>
0.091

> <Angle>
2.713

> <Pdih>
3.529

> <Idih>
0.000

> <Tether>
0.000

$$$$
VeraChem MOL file


 13 12  0  0  0  0  0  0  0  0999 V2000     
   18.4860   19.7473   23.1354 C   0  0  0  0  0  0  0  0  0  0  0  0
   17.3590   19.3510   22.9155 O   0  5  0  0  0  0  0  0  0  0  0  0
   18.7308   20.7833   23.7203 O   0  0  0  0  0  0  0  0  0  0  0  0
   19.6563   18.9082   22.6337 C   0  0  0  0  0  0  0  0  0  0  0  0
   19.3601   17.8528   22.6700 H   0  0  0  0  0  0  0  0  0  0  0  0
   20.4913   19.0339   23.3337 H   0  0  0  0  0  0  0  0  0  0  0  0
   20.1011   19.2875   21.2005 C   0  0  0  0  0  0  0  0  0  0  0  0
   19.2544   19.1674   20.5101 H   0  0  0  0  0  0  0  0  0  0  0  0
   20.3860   20.3486   21.1740 H   0  0  0  0  0  0  0  0  0  0  0  0
   21.2845   18.4221   20.7231 C   0  0  0  0  0  0  0  0  0  0  0  0
   21.5853   18.7056   19.7060 H   0  0  0  0  0  0  0  0  0  0  0  0
   22.1541   18.5484   21.3813 H   0  0  0  0  0  0  0  0  0  0  0  0
   21.0138   17.3581   20.7124 H   0  0  0  0  0  0  0  0  0  0  0  0
  1  2  1  0  0  0  0
  1  3  2  0  0  0  0
  1  4  1  0  0  0  0
  4  5  1  0  0  0  0
  4  6  1  0  0  0  0
  4  7  1  0  0  0  0
  7  8  1  0  0  0  0
  7  9  1  0  0  0  0
  7 10  1  0  0  0  0
 10 11  1  0  0  0  0
 10 12  1  0  0  0  0
 10 13  1  0  0  0  0
M  END
> <VConfSearch Rank>
822

> <Conf_Id>
1

> <Delta U+W>
-1.339

> <U+W>
-59.672

> <U>
7.389

> <W>
-67.061

> <W(PB)>
-68.767

> <W(SA)>
1.707

> <Valence>
5.822

> <Coulomb>
1.255

> <VdW>
0.312

> <VdW6>
-3.061

> <VdW12>
3.372

> <Bond>
0.059

> <Angle>
2.241

> <Pdih>
3.522

> <Idih>
0.000

> <Tether>
0.000

$$$$
VeraChem MOL file


 13 12  0  0  0  0  0  0  0  0999 V2000     
   21.5250   20.0548   22.2610 C   0  0  0  0  0  0  0  0  0  0  0  0
   22.1718   19.8559   23.2700 O   0  5  0  0  0  0  0  0  0  0  0  0
   22.0242   20.3430   21.1916 O   0  0  0  0  0  0  0  0  0  0  0  0
   20.0033   19.9727   22.3530 C   0  0  0  0  0  0  0  0  0  0  0  0
   19.5708   20.4776   21.4805 H   0  0  0  0  0  0  0  0  0  0  0  0
   19.6976   20.5475   23.2353 H   0  0  0  0  0  0  0  0  0  0  0  0
   19.4511   18.5282   22.4619 C   0  0  0  0  0  0  0  0  0  0  0  0
   19.9216   18.0180   23.3141 H   0  0  0  0  0  0  0  0  0  0  0  0
   18.3741   18.5697   22.6743 H   0  0  0  0  0  0  0  0  0  0  0  0
   19.6796   17.7101   21.1741 C   0  0  0  0  0  0  0  0  0  0  0  0
   20.7509   17.6103   20.9548 H   0  0  0  0  0  0  0  0  0  0  0  0
   19.2602   16.7009   21.2774 H   0  0  0  0  0  0  0  0  0  0  0  0
   19.1981   18.1915   20.3128 H   0  0  0  0  0  0  0  0  0  0  0  0
  1  2  1  0  0  0  0
  1  3  2  0  0  0  0
  1  4  1  0  0  0  0
  4  5  1  0  0  0  0
  4  6  1  0  0  0  0
  4  7  1  0  0  0  0
  7  8  1  0  0  0  0
  7  9  1  0  0  0  0
  7 10  1  0  0  0  0
 10 11  1  0  0  0  0
 10 12  1  0  0  0  0
 10 13  1  0  0  0  0
M  END
> <VConfSearch Rank>
823

> <Conf_Id>
4

> <Delta U+W>
0.281

> <U+W>
-58.051

> <U>
9.781

> <W>
-67.832

> <W(PB)>
-69.535

> <W(SA)>
1.703

> <Valence>
6.123

> <Coulomb>
3.449

> <VdW>
0.209

> <VdW6>
-3.762

> <VdW12>
3.972

> <Bond>
0.078

> <Angle>
2.428

> <Pdih>
3.616

> <Idih>
0.002

> <Tether>
0.000

$$$$
VeraChem MOL file


 13 12  0  0  0  0  0  0  0  0999 V2000     
   18.9726   17.6112   22.2426 C   0  0  0  0  0  0  0  0  0  0  0  0
   19.0208   17.2422   23.3990 O   0  5  0  0  0  0  0  0  0  0  0  0
   17.9446   17.6570   21.5966 O   0  0  0  0  0  0  0  0  0  0  0  0
   20.2758   18.0046   21.5514 C   0  0  0  0  0  0  0  0  0  0  0  0
   20.2996   17.4921   20.5823 H   0  0  0  0  0  0  0  0  0  0  0  0
   21.1164   17.6131   22.1374 H   0  0  0  0  0  0  0  0  0  0  0  0
   20.4424   19.5302   21.3321 C   0  0  0  0  0  0  0  0  0  0  0  0
   21.3239   19.7089   20.7013 H   0  0  0  0  0  0  0  0  0  0  0  0
   19.5752   19.9192   20.7802 H   0  0  0  0  0  0  0  0  0  0  0  0
   20.6061   20.3028   22.6573 C   0  0  0  0  0  0  0  0  0  0  0  0
   21.4812   19.9444   23.2150 H   0  0  0  0  0  0  0  0  0  0  0  0
   20.7412   21.3752   22.4657 H   0  0  0  0  0  0  0  0  0  0  0  0
   19.7211   20.1823   23.2962 H   0  0  0  0  0  0  0  0  0  0  0  0
  1  2  1  0  0  0  0
  1  3  2  0  0  0  0
  1  4  1  0  0  0  0
  4  5  1  0  0  0  0
  4  6  1  0  0  0  0
  4  7  1  0  0  0  0
  7  8  1  0  0  0  0
  7  9  1  0  0  0  0
  7 10  1  0  0  0  0
 10 11  1  0  0  0  0
 10 12  1  0  0  0  0
 10 13  1  0  0  0  0
M  END
> <VConfSearch Rank>
824

> <Conf_Id>
36

> <Delta U+W>
0.272

> <U+W>
-58.060

> <U>
9.781

> <W>
-67.841

> <W(PB)>
-69.537

> <W(SA)>
1.696

> <Valence>
6.123

> <Coulomb>
3.449

> <VdW>
0.209

> <VdW6>
-3.762

> <VdW12>
3.972

> <Bond>
0.078

> <Angle>
2.428

> <Pdih>
3.616

> <Idih>
0.002

> <Tether>
0.000

$$$$
VeraChem MOL file


 13 12  0  0  0  0  0  0  0  0999 V2000     
   17.9875   19.0546   22.4556 C   0  0  0  0  0  0  0  0  0  0  0  0
   17.7678   20.2470   22.3706 O   0  5  0  0  0  0  0  0  0  0  0  0
   17.1526   18.2528   22.8227 O   0  0  0  0  0  0  0  0  0  0  0  0
   19.3690   18.5078   22.0908 C   0  0  0  0  0  0  0  0  0  0  0  0
   19.2276   17.7604   21.3011 H   0  0  0  0  0  0  0  0  0  0  0  0
   19.7536   17.9765   22.9694 H   0  0  0  0  0  0  0  0  0  0  0  0
   20.4022   19.5680   21.6277 C   0  0  0  0  0  0  0  0  0  0  0  0
   20.0136   20.1013   20.7488 H   0  0  0  0  0  0  0  0  0  0  0  0
   20.5403   20.3177   22.4192 H   0  0  0  0  0  0  0  0  0  0  0  0
   21.7611   18.9261   21.2824 C   0  0  0  0  0  0  0  0  0  0  0  0
   21.6550   18.1941   20.4709 H   0  0  0  0  0  0  0  0  0  0  0  0
   22.4783   19.6910   20.9572 H   0  0  0  0  0  0  0  0  0  0  0  0
   22.1859   18.4122   22.1547 H   0  0  0  0  0  0  0  0  0  0  0  0
  1  2  1  0  0  0  0
  1  3  2  0  0  0  0
  1  4  1  0  0  0  0
  4  5  1  0  0  0  0
  4  6  1  0  0  0  0
  4  7  1  0  0  0  0
  7  8  1  0  0  0  0
  7  9  1  0  0  0  0
  7 10  1  0  0  0  0
 10 11  1  0  0  0  0
 10 12  1  0  0  0  0
 10 13  1  0  0  0  0
M  END
> <VConfSearch Rank>
825

> <Conf_Id>
0

> <Delta U+W>
0.000

> <U+W>
-58.332

> <U>
8.390

> <W>
-66.722

> <W(PB)>
-68.455

> <W(SA)>
1.733

> <Valence>
6.333

> <Coulomb>
1.215

> <VdW>
0.842

> <VdW6>
-3.344

> <VdW12>
4.186

> <Bond>
0.091

> <Angle>
2.713

> <Pdih>
3.529

> <Idih>
0.000

> <Tether>
0.000

$$$$
VeraChem MOL file


 13 12  0  0  0  0  0  0  0  0999 V2000     
   18.4217   17.8283   21.1003 C   0  0  0  0  0  0  0  0  0  0  0  0
   17.4566   18.4160   20.6546 O   0  5  0  0  0  0  0  0  0  0  0  0
   18.3755   16.6950   21.5347 O   0  0  0  0  0  0  0  0  0  0  0  0
   19.7595   18.5596   21.1336 C   0  0  0  0  0  0  0  0  0  0  0  0
   19.7992   19.2381   20.2727 H   0  0  0  0  0  0  0  0  0  0  0  0
   20.5570   17.8188   20.9985 H   0  0  0  0  0  0  0  0  0  0  0  0
   19.9834   19.3500   22.4455 C   0  0  0  0  0  0  0  0  0  0  0  0
   19.1738   20.0818   22.5752 H   0  0  0  0  0  0  0  0  0  0  0  0
   19.9318   18.6622   23.3011 H   0  0  0  0  0  0  0  0  0  0  0  0
   21.3430   20.0772   22.4478 C   0  0  0  0  0  0  0  0  0  0  0  0
   21.4835   20.6314   23.3850 H   0  0  0  0  0  0  0  0  0  0  0  0
   22.1708   19.3626   22.3492 H   0  0  0  0  0  0  0  0  0  0  0  0
   21.4069   20.7931   21.6178 H   0  0  0  0  0  0  0  0  0  0  0  0
  1  2  1  0  0  0  0
  1  3  2  0  0  0  0
  1  4  1  0  0  0  0
  4  5  1  0  0  0  0
  4  6  1  0  0  0  0
  4  7  1  0  0  0  0
  7  8  1  0  0  0  0
  7  9  1  0  0  0  0
  7 10  1  0  0  0  0
 10 11  1  0  0  0  0
 10 12  1  0  0  0  0
 10 13  1  0  0  0  0
M  END
> <VConfSearch Rank>
826

> <Conf_Id>
1

> <Delta U+W>
-1.339

> <U+W>
-59.672

> <U>
7.389

> <W>
-67.061

> <W(PB)>
-68.767

> <W(SA)>
1.707

> <Valence>
5.822

> <Coulomb>
1.255

> <VdW>
0.312

> <VdW6>
-3.061

> <VdW12>
3.372

> <Bond>
0.059

> <Angle>
2.241

> <Pdih>
3.522

> <Idih>
0.000

> <Tether>
0.000

$$$$
VeraChem MOL file


 13 12  0  0  0  0  0  0  0  0999 V2000     
   19.5327   17.2767   22.0117 C   0  0  0  0  0  0  0  0  0  0  0  0
   19.5592   16.7116   23.0869 O   0  5  0  0  0  0  0  0  0  0  0  0
   18.6238   17.1567   21.2144 O   0  0  0  0  0  0  0  0  0  0  0  0
   20.7218   18.1547   21.6298 C   0  0  0  0  0  0  0  0  0  0  0  0
   20.7013   18.3221   20.5459 H   0  0  0  0  0  0  0  0  0  0  0  0
   21.6326   17.5832   21.8448 H   0  0  0  0  0  0  0  0  0  0  0  0
   20.7755   19.5111   22.3786 C   0  0  0  0  0  0  0  0  0  0  0  0
   20.7538   19.3336   23.4630 H   0  0  0  0  0  0  0  0  0  0  0  0
   21.7314   20.0060   22.1588 H   0  0  0  0  0  0  0  0  0  0  0  0
   19.6185   20.4510   21.9813 C   0  0  0  0  0  0  0  0  0  0  0  0
   18.6456   20.0057   22.2284 H   0  0  0  0  0  0  0  0  0  0  0  0
   19.6972   21.4079   22.5136 H   0  0  0  0  0  0  0  0  0  0  0  0
   19.6348   20.6596   20.9035 H   0  0  0  0  0  0  0  0  0  0  0  0
  1  2  1  0  0  0  0
  1  3  2  0  0  0  0
  1  4  1  0  0  0  0
  4  5  1  0  0  0  0
  4  6  1  0  0  0  0
  4  7  1  0  0  0  0
  7  8  1  0  0  0  0
  7  9  1  0  0  0  0
  7 10  1  0  0  0  0
 10 11  1  0  0  0  0
 10 12  1  0  0  0  0
 10 13  1  0  0  0  0
M  END
> <VConfSearch Rank>
827

> <Conf_Id>
4

> <Delta U+W>
0.281

> <U+W>
-58.051

> <U>
9.781

> <W>
-67.832

> <W(PB)>
-69.535

> <W(SA)>
1.703

> <Valence>
6.123

> <Coulomb>
3.449

> <VdW>
0.209

> <VdW6>
-3.762

> <VdW12>
3.972

> <Bond>
0.078

> <Angle>
2.428

> <Pdih>
3.616

> <Idih>
0.002

> <Tether>
0.000

$$$$
VeraChem MOL file


 13 12  0  0  0  0  0  0  0  0999 V2000     
   18.9860   17.8813   22.8632 C   0  0  0  0  0  0  0  0  0  0  0  0
   18.4591   17.1261   22.0708 O   0  5  0  0  0  0  0  0  0  0  0  0
   19.3178   17.5507   23.9843 O   0  0  0  0  0  0  0  0  0  0  0  0
   19.2117   19.3317   22.4435 C   0  0  0  0  0  0  0  0  0  0  0  0
   18.8425   19.9685   23.2562 H   0  0  0  0  0  0  0  0  0  0  0  0
   18.5885   19.5447   21.5662 H   0  0  0  0  0  0  0  0  0  0  0  0
   20.6918   19.6830   22.1450 C   0  0  0  0  0  0  0  0  0  0  0  0
   20.7821   20.7683   22.0008 H   0  0  0  0  0  0  0  0  0  0  0  0
   21.3130   19.4274   23.0149 H   0  0  0  0  0  0  0  0  0  0  0  0
   21.2285   18.9618   20.8914 C   0  0  0  0  0  0  0  0  0  0  0  0
   20.6348   19.2211   20.0050 H   0  0  0  0  0  0  0  0  0  0  0  0
   22.2707   19.2471   20.6974 H   0  0  0  0  0  0  0  0  0  0  0  0
   21.1945   17.8716   21.0183 H   0  0  0  0  0  0  0  0  0  0  0  0
  1  2  1  0  0  0  0
  1  3  2  0  0  0  0
  1  4  1  0  0  0  0
  4  5  1  0  0  0  0
  4  6  1  0  0  0  0
  4  7  1  0  0  0  0
  7  8  1  0  0  0  0
  7  9  1  0  0  0  0
  7 10  1  0  0  0  0
 10 11  1  0  0  0  0
 10 12  1  0  0  0  0
 10 13  1  0  0  0  0
M  END
> <VConfSearch Rank>
828

> <Conf_Id>
36

> <Delta U+W>
0.272

> <U+W>
-58.060

> <U>
9.781

> <W>
-67.841

> <W(PB)>
-69.537

> <W(SA)>
1.696

> <Valence>
6.123

> <Coulomb>
3.449

> <VdW>
0.209

> <VdW6>
-3.762

> <VdW12>
3.972

> <Bond>
0.078

> <Angle>
2.428

> <Pdih>
3.616

> <Idih>
0.002

> <Tether>
0.000

$$$$
VeraChem MOL file


 13 12  0  0  0  0  0  0  0  0999 V2000     
   20.2488   20.1413   23.6085 C   0  0  0  0  0  0  0  0  0  0  0  0
   19.7862   21.2047   23.2444 O   0  5  0  0  0  0  0  0  0  0  0  0
   20.6799   19.9565   24.7286 O   0  0  0  0  0  0  0  0  0  0  0  0
   20.3048   18.9628   22.6345 C   0  0  0  0  0  0  0  0  0  0  0  0
   19.7524   18.1332   23.0918 H   0  0  0  0  0  0  0  0  0  0  0  0
   21.3525   18.6479   22.5610 H   0  0  0  0  0  0  0  0  0  0  0  0
   19.7434   19.2454   21.2164 C   0  0  0  0  0  0  0  0  0  0  0  0
   18.6942   19.5636   21.2926 H   0  0  0  0  0  0  0  0  0  0  0  0
   20.2962   20.0790   20.7611 H   0  0  0  0  0  0  0  0  0  0  0  0
   19.8412   18.0038   20.3073 C   0  0  0  0  0  0  0  0  0  0  0  0
   19.2701   17.1645   20.7256 H   0  0  0  0  0  0  0  0  0  0  0  0
   19.4397   18.2229   19.3093 H   0  0  0  0  0  0  0  0  0  0  0  0
   20.8850   17.6840   20.1900 H   0  0  0  0  0  0  0  0  0  0  0  0
  1  2  1  0  0  0  0
  1  3  2  0  0  0  0
  1  4  1  0  0  0  0
  4  5  1  0  0  0  0
  4  6  1  0  0  0  0
  4  7  1  0  0  0  0
  7  8  1  0  0  0  0
  7  9  1  0  0  0  0
  7 10  1  0  0  0  0
 10 11  1  0  0  0  0
 10 12  1  0  0  0  0
 10 13  1  0  0  0  0
M  END
> <VConfSearch Rank>
829

> <Conf_Id>
0

> <Delta U+W>
0.000

> <U+W>
-58.332

> <U>
8.390

> <W>
-66.722

> <W(PB)>
-68.455

> <W(SA)>
1.733

> <Valence>
6.333

> <Coulomb>
1.215

> <VdW>
0.842

> <VdW6>
-3.344

> <VdW12>
4.186

> <Bond>
0.091

> <Angle>
2.713

> <Pdih>
3.529

> <Idih>
0.000

> <Tether>
0.000

$$$$
VeraChem MOL file


 13 12  0  0  0  0  0  0  0  0999 V2000     
   17.9209   19.4201   21.6412 C   0  0  0  0  0  0  0  0  0  0  0  0
   17.2005   18.4432   21.5947 O   0  5  0  0  0  0  0  0  0  0  0  0
   17.6175   20.5003   21.1759 O   0  0  0  0  0  0  0  0  0  0  0  0
   19.2875   19.2777   22.3026 C   0  0  0  0  0  0  0  0  0  0  0  0
   19.2004   18.5418   23.1113 H   0  0  0  0  0  0  0  0  0  0  0  0
   19.5443   20.2382   22.7659 H   0  0  0  0  0  0  0  0  0  0  0  0
   20.3970   18.8509   21.3113 C   0  0  0  0  0  0  0  0  0  0  0  0
   20.1244   17.8932   20.8464 H   0  0  0  0  0  0  0  0  0  0  0  0
   20.4685   19.5899   20.5010 H   0  0  0  0  0  0  0  0  0  0  0  0
   21.7647   18.7159   22.0102 C   0  0  0  0  0  0  0  0  0  0  0  0
   22.5378   18.4129   21.2920 H   0  0  0  0  0  0  0  0  0  0  0  0
   22.0730   19.6699   22.4578 H   0  0  0  0  0  0  0  0  0  0  0  0
   21.7263   17.9601   22.8058 H   0  0  0  0  0  0  0  0  0  0  0  0
  1  2  1  0  0  0  0
  1  3  2  0  0  0  0
  1  4  1  0  0  0  0
  4  5  1  0  0  0  0
  4  6  1  0  0  0  0
  4  7  1  0  0  0  0
  7  8  1  0  0  0  0
  7  9  1  0  0  0  0
  7 10  1  0  0  0  0
 10 11  1  0  0  0  0
 10 12  1  0  0  0  0
 10 13  1  0  0  0  0
M  END
> <VConfSearch Rank>
830

> <Conf_Id>
1

> <Delta U+W>
-1.339

> <U+W>
-59.672

> <U>
7.389

> <W>
-67.061

> <W(PB)>
-68.767

> <W(SA)>
1.707

> <Valence>
5.822

> <Coulomb>
1.255

> <VdW>
0.312

> <VdW6>
-3.061

> <VdW12>
3.372

> <Bond>
0.059

> <Angle>
2.241

> <Pdih>
3.522

> <Idih>
0.000

> <Tether>
0.000

$$$$
VeraChem MOL file


 13 12  0  0  0  0  0  0  0  0999 V2000     
   19.6722   18.7154   20.2818 C   0  0  0  0  0  0  0  0  0  0  0  0
   18.5199   18.3892   20.0770 O   0  5  0  0  0  0  0  0  0  0  0  0
   20.2813   19.4982   19.5803 O   0  0  0  0  0  0  0  0  0  0  0  0
   20.4019   18.0793   21.4624 C   0  0  0  0  0  0  0  0  0  0  0  0
   21.4813   18.2176   21.3242 H   0  0  0  0  0  0  0  0  0  0  0  0
   20.2131   17.0000   21.4204 H   0  0  0  0  0  0  0  0  0  0  0  0
   19.9666   18.6255   22.8464 C   0  0  0  0  0  0  0  0  0  0  0  0
   18.8783   18.5199   22.9576 H   0  0  0  0  0  0  0  0  0  0  0  0
   20.4252   18.0137   23.6352 H   0  0  0  0  0  0  0  0  0  0  0  0
   20.3708   20.0999   23.0530 C   0  0  0  0  0  0  0  0  0  0  0  0
   19.8934   20.7484   22.3064 H   0  0  0  0  0  0  0  0  0  0  0  0
   20.0659   20.4488   24.0482 H   0  0  0  0  0  0  0  0  0  0  0  0
   21.4583   20.2242   22.9679 H   0  0  0  0  0  0  0  0  0  0  0  0
  1  2  1  0  0  0  0
  1  3  2  0  0  0  0
  1  4  1  0  0  0  0
  4  5  1  0  0  0  0
  4  6  1  0  0  0  0
  4  7  1  0  0  0  0
  7  8  1  0  0  0  0
  7  9  1  0  0  0  0
  7 10  1  0  0  0  0
 10 11  1  0  0  0  0
 10 12  1  0  0  0  0
 10 13  1  0  0  0  0
M  END
> <VConfSearch Rank>
831

> <Conf_Id>
4

> <Delta U+W>
0.281

> <U+W>
-58.051

> <U>
9.781

> <W>
-67.832

> <W(PB)>
-69.535

> <W(SA)>
1.703

> <Valence>
6.123

> <Coulomb>
3.449

> <VdW>
0.209

> <VdW6>
-3.762

> <VdW12>
3.972

> <Bond>
0.078

> <Angle>
2.428

> <Pdih>
3.616

> <Idih>
0.002

> <Tether>
0.000

$$$$
VeraChem MOL file


 13 12  0  0  0  0  0  0  0  0999 V2000     
   21.7485   19.6888   22.1676 C   0  0  0  0  0  0  0  0  0  0  0  0
   22.3521   19.5840   21.1184 O   0  5  0  0  0  0  0  0  0  0  0  0
   21.8288   20.6608   22.8921 O   0  0  0  0  0  0  0  0  0  0  0  0
   20.8704   18.5244   22.6190 C   0  0  0  0  0  0  0  0  0  0  0  0
   21.1155   18.3174   23.6676 H   0  0  0  0  0  0  0  0  0  0  0  0
   21.1491   17.6314   22.0463 H   0  0  0  0  0  0  0  0  0  0  0  0
   19.3485   18.7893   22.4879 C   0  0  0  0  0  0  0  0  0  0  0  0
   18.7978   17.9704   22.9705 H   0  0  0  0  0  0  0  0  0  0  0  0
   19.0872   19.7085   23.0307 H   0  0  0  0  0  0  0  0  0  0  0  0
   18.8939   18.9049   21.0183 C   0  0  0  0  0  0  0  0  0  0  0  0
   19.1258   17.9870   20.4624 H   0  0  0  0  0  0  0  0  0  0  0  0
   17.8105   19.0723   20.9606 H   0  0  0  0  0  0  0  0  0  0  0  0
   19.3929   19.7440   20.5156 H   0  0  0  0  0  0  0  0  0  0  0  0
  1  2  1  0  0  0  0
  1  3  2  0  0  0  0
  1  4  1  0  0  0  0
  4  5  1  0  0  0  0
  4  6  1  0  0  0  0
  4  7  1  0  0  0  0
  7  8  1  0  0  0  0
  7  9  1  0  0  0  0
  7 10  1  0  0  0  0
 10 11  1  0  0  0  0
 10 12  1  0  0  0  0
 10 13  1  0  0  0  0
M  END
> <VConfSearch Rank>
832

> <Conf_Id>
36

> <Delta U+W>
0.272

> <U+W>
-58.060

> <U>
9.781

> <W>
-67.841

> <W(PB)>
-69.537

> <W(SA)>
1.696

> <Valence>
6.123

> <Coulomb>
3.449

> <VdW>
0.209

> <VdW6>
-3.762

> <VdW12>
3.972

> <Bond>
0.078

> <Angle>
2.428

> <Pdih>
3.616

> <Idih>
0.002

> <Tether>
0.000

$$$$
VeraChem MOL file


 13 12  0  0  0  0  0  0  0  0999 V2000     
   21.6815   17.8542   22.5146 C   0  0  0  0  0  0  0  0  0  0  0  0
   22.5000   18.7379   22.6773 O   0  5  0  0  0  0  0  0  0  0  0  0
   21.9181   16.6842   22.7381 O   0  0  0  0  0  0  0  0  0  0  0  0
   20.2805   18.1993   22.0059 C   0  0  0  0  0  0  0  0  0  0  0  0
   19.5623   17.8304   22.7478 H   0  0  0  0  0  0  0  0  0  0  0  0
   20.1149   17.6248   21.0867 H   0  0  0  0  0  0  0  0  0  0  0  0
   20.0243   19.7048   21.7343 C   0  0  0  0  0  0  0  0  0  0  0  0
   20.1936   20.2790   22.6559 H   0  0  0  0  0  0  0  0  0  0  0  0
   20.7469   20.0732   20.9928 H   0  0  0  0  0  0  0  0  0  0  0  0
   18.5902   19.9558   21.2261 C   0  0  0  0  0  0  0  0  0  0  0  0
   17.8481   19.6240   21.9642 H   0  0  0  0  0  0  0  0  0  0  0  0
   18.4280   21.0255   21.0397 H   0  0  0  0  0  0  0  0  0  0  0  0
   18.4059   19.4165   20.2877 H   0  0  0  0  0  0  0  0  0  0  0  0
  1  2  1  0  0  0  0
  1  3  2  0  0  0  0
  1  4  1  0  0  0  0
  4  5  1  0  0  0  0
  4  6  1  0  0  0  0
  4  7  1  0  0  0  0
  7  8  1  0  0  0  0
  7  9  1  0  0  0  0
  7 10  1  0  0  0  0
 10 11  1  0  0  0  0
 10 12  1  0  0  0  0
 10 13  1  0  0  0  0
M  END
> <VConfSearch Rank>
833

> <Conf_Id>
0

> <Delta U+W>
0.000

> <U+W>
-58.332

> <U>
8.390

> <W>
-66.722

> <W(PB)>
-68.455

> <W(SA)>
1.733

> <Valence>
6.333

> <Coulomb>
1.215

> <VdW>
0.842

> <VdW6>
-3.344

> <VdW12>
4.186

> <Bond>
0.091

> <Angle>
2.713

> <Pdih>
3.529

> <Idih>
0.000

> <Tether>
0.000

$$$$
VeraChem MOL file


 13 12  0  0  0  0  0  0  0  0999 V2000     
   22.0662   19.4214   21.8714 C   0  0  0  0  0  0  0  0  0  0  0  0
   22.7843   18.5029   21.5307 O   0  5  0  0  0  0  0  0  0  0  0  0
   22.4295   20.3225   22.6003 O   0  0  0  0  0  0  0  0  0  0  0  0
   20.6253   19.4337   21.3723 C   0  0  0  0  0  0  0  0  0  0  0  0
   20.6056   18.9782   20.3748 H   0  0  0  0  0  0  0  0  0  0  0  0
   20.3130   20.4788   21.2568 H   0  0  0  0  0  0  0  0  0  0  0  0
   19.6521   18.6884   22.3175 C   0  0  0  0  0  0  0  0  0  0  0  0
   19.9803   17.6460   22.4336 H   0  0  0  0  0  0  0  0  0  0  0  0
   19.6875   19.1469   23.3157 H   0  0  0  0  0  0  0  0  0  0  0  0
   18.2053   18.7190   21.7854 C   0  0  0  0  0  0  0  0  0  0  0  0
   17.5308   18.1861   22.4683 H   0  0  0  0  0  0  0  0  0  0  0  0
   17.8439   19.7513   21.6891 H   0  0  0  0  0  0  0  0  0  0  0  0
   18.1389   18.2388   20.8002 H   0  0  0  0  0  0  0  0  0  0  0  0
  1  2  1  0  0  0  0
  1  3  2  0  0  0  0
  1  4  1  0  0  0  0
  4  5  1  0  0  0  0
  4  6  1  0  0  0  0
  4  7  1  0  0  0  0
  7  8  1  0  0  0  0
  7  9  1  0  0  0  0
  7 10  1  0  0  0  0
 10 11  1  0  0  0  0
 10 12  1  0  0  0  0
 10 13  1  0  0  0  0
M  END
> <VConfSearch Rank>
834

> <Conf_Id>
1

> <Delta U+W>
-1.339

> <U+W>
-59.672

> <U>
7.389

> <W>
-67.061

> <W(PB)>
-68.767

> <W(SA)>
1.707

> <Valence>
5.822

> <Coulomb>
1.255

> <VdW>
0.312

> <VdW6>
-3.061

> <VdW12>
3.372

> <Bond>
0.059

> <Angle>
2.241

> <Pdih>
3.522

> <Idih>
0.000

> <Tether>
0.000

$$$$
VeraChem MOL file


 13 12  0  0  0  0  0  0  0  0999 V2000     
   19.3893   20.4725   21.3610 C   0  0  0  0  0  0  0  0  0  0  0  0
   18.2005   20.4223   21.1152 O   0  5  0  0  0  0  0  0  0  0  0  0
   19.9277   21.4357   21.8693 O   0  0  0  0  0  0  0  0  0  0  0  0
   20.2554   19.2754   20.9772 C   0  0  0  0  0  0  0  0  0  0  0  0
   21.3056   19.5919   20.9620 H   0  0  0  0  0  0  0  0  0  0  0  0
   19.9933   18.9983   19.9491 H   0  0  0  0  0  0  0  0  0  0  0  0
   20.0824   18.0441   21.9031 C   0  0  0  0  0  0  0  0  0  0  0  0
   19.0212   17.7608   21.9437 H   0  0  0  0  0  0  0  0  0  0  0  0
   20.6207   17.1898   21.4702 H   0  0  0  0  0  0  0  0  0  0  0  0
   20.6083   18.3002   23.3305 C   0  0  0  0  0  0  0  0  0  0  0  0
   20.0607   19.1215   23.8115 H   0  0  0  0  0  0  0  0  0  0  0  0
   20.4891   17.4041   23.9533 H   0  0  0  0  0  0  0  0  0  0  0  0
   21.6741   18.5635   23.3147 H   0  0  0  0  0  0  0  0  0  0  0  0
  1  2  1  0  0  0  0
  1  3  2  0  0  0  0
  1  4  1  0  0  0  0
  4  5  1  0  0  0  0
  4  6  1  0  0  0  0
  4  7  1  0  0  0  0
  7  8  1  0  0  0  0
  7  9  1  0  0  0  0
  7 10  1  0  0  0  0
 10 11  1  0  0  0  0
 10 12  1  0  0  0  0
 10 13  1  0  0  0  0
M  END
> <VConfSearch Rank>
835

> <Conf_Id>
4

> <Delta U+W>
0.281

> <U+W>
-58.051

> <U>
9.781

> <W>
-67.832

> <W(PB)>
-69.535

> <W(SA)>
1.703

> <Valence>
6.123

> <Coulomb>
3.449

> <VdW>
0.209

> <VdW6>
-3.762

> <VdW12>
3.972

> <Bond>
0.078

> <Angle>
2.428

> <Pdih>
3.616

> <Idih>
0.002

> <Tether>
0.000

$$$$
VeraChem MOL file


 13 12  0  0  0  0  0  0  0  0999 V2000     
   21.7721   19.6513   22.0642 C   0  0  0  0  0  0  0  0  0  0  0  0
   22.1429   19.7070   23.2198 O   0  5  0  0  0  0  0  0  0  0  0  0
   22.5053   19.3651   21.1387 O   0  0  0  0  0  0  0  0  0  0  0  0
   20.3174   19.9933   21.7516 C   0  0  0  0  0  0  0  0  0  0  0  0
   20.3204   20.6980   20.9115 H   0  0  0  0  0  0  0  0  0  0  0  0
   19.8893   20.5256   22.6099 H   0  0  0  0  0  0  0  0  0  0  0  0
   19.4402   18.7666   21.3925 C   0  0  0  0  0  0  0  0  0  0  0  0
   18.4606   19.1159   21.0384 H   0  0  0  0  0  0  0  0  0  0  0  0
   19.8997   18.2173   20.5588 H   0  0  0  0  0  0  0  0  0  0  0  0
   19.2336   17.8173   22.5909 C   0  0  0  0  0  0  0  0  0  0  0  0
   18.7546   18.3412   23.4284 H   0  0  0  0  0  0  0  0  0  0  0  0
   18.5933   16.9715   22.3085 H   0  0  0  0  0  0  0  0  0  0  0  0
   20.1916   17.4131   22.9439 H   0  0  0  0  0  0  0  0  0  0  0  0
  1  2  1  0  0  0  0
  1  3  2  0  0  0  0
  1  4  1  0  0  0  0
  4  5  1  0  0  0  0
  4  6  1  0  0  0  0
  4  7  1  0  0  0  0
  7  8  1  0  0  0  0
  7  9  1  0  0  0  0
  7 10  1  0  0  0  0
 10 11  1  0  0  0  0
 10 12  1  0  0  0  0
 10 13  1  0  0  0  0
M  END
> <VConfSearch Rank>
836

> <Conf_Id>
36

> <Delta U+W>
0.272

> <U+W>
-58.060

> <U>
9.781

> <W>
-67.841

> <W(PB)>
-69.537

> <W(SA)>
1.696

> <Valence>
6.123

> <Coulomb>
3.449

> <VdW>
0.209

> <VdW6>
-3.762

> <VdW12>
3.972

> <Bond>
0.078

> <Angle>
2.428

> <Pdih>
3.616

> <Idih>
0.002

> <Tether>
0.000

$$$$
VeraChem MOL file


 13 12  0  0  0  0  0  0  0  0999 V2000     
   19.0983   17.3190   20.8908 C   0  0  0  0  0  0  0  0  0  0  0  0
   19.1517   16.5146   21.8004 O   0  5  0  0  0  0  0  0  0  0  0  0
   18.6129   17.0615   19.8078 O   0  0  0  0  0  0  0  0  0  0  0  0
   19.6600   18.7284   21.0878 C   0  0  0  0  0  0  0  0  0  0  0  0
   18.8462   19.4361   20.8895 H   0  0  0  0  0  0  0  0  0  0  0  0
   20.4200   18.8894   20.3140 H   0  0  0  0  0  0  0  0  0  0  0  0
   20.2695   19.0114   22.4858 C   0  0  0  0  0  0  0  0  0  0  0  0
   19.5070   18.8467   23.2599 H   0  0  0  0  0  0  0  0  0  0  0  0
   21.0827   18.2992   22.6838 H   0  0  0  0  0  0  0  0  0  0  0  0
   20.8085   20.4523   22.5910 C   0  0  0  0  0  0  0  0  0  0  0  0
   20.0070   21.1846   22.4275 H   0  0  0  0  0  0  0  0  0  0  0  0
   21.2354   20.6336   23.5860 H   0  0  0  0  0  0  0  0  0  0  0  0
   21.5953   20.6328   21.8467 H   0  0  0  0  0  0  0  0  0  0  0  0
  1  2  1  0  0  0  0
  1  3  2  0  0  0  0
  1  4  1  0  0  0  0
  4  5  1  0  0  0  0
  4  6  1  0  0  0  0
  4  7  1  0  0  0  0
  7  8  1  0  0  0  0
  7  9  1  0  0  0  0
  7 10  1  0  0  0  0
 10 11  1  0  0  0  0
 10 12  1  0  0  0  0
 10 13  1  0  0  0  0
M  END
> <VConfSearch Rank>
837

> <Conf_Id>
0

> <Delta U+W>
0.000

> <U+W>
-58.332

> <U>
8.390

> <W>
-66.722

> <W(PB)>
-68.455

> <W(SA)>
1.733

> <Valence>
6.333

> <Coulomb>
1.215

> <VdW>
0.842

> <VdW6>
-3.344

> <VdW12>
4.186

> <Bond>
0.091

> <Angle>
2.713

> <Pdih>
3.529

> <Idih>
0.000

> <Tether>
0.000

$$$$
VeraChem MOL file


 13 12  0  0  0  0  0  0  0  0999 V2000     
   21.2364   18.8937   20.1338 C   0  0  0  0  0  0  0  0  0  0  0  0
   21.3743   19.9106   19.4839 O   0  5  0  0  0  0  0  0  0  0  0  0
   21.3858   17.7789   19.6753 O   0  0  0  0  0  0  0  0  0  0  0  0
   20.8360   19.0232   21.5995 C   0  0  0  0  0  0  0  0  0  0  0  0
   21.2768   19.9471   21.9935 H   0  0  0  0  0  0  0  0  0  0  0  0
   21.2863   18.1892   22.1514 H   0  0  0  0  0  0  0  0  0  0  0  0
   19.3023   19.0337   21.8081 C   0  0  0  0  0  0  0  0  0  0  0  0
   18.8612   19.8667   21.2431 H   0  0  0  0  0  0  0  0  0  0  0  0
   18.8708   18.1085   21.4011 H   0  0  0  0  0  0  0  0  0  0  0  0
   18.9307   19.1656   23.2987 C   0  0  0  0  0  0  0  0  0  0  0  0
   17.8403   19.1712   23.4263 H   0  0  0  0  0  0  0  0  0  0  0  0
   19.3358   18.3270   23.8802 H   0  0  0  0  0  0  0  0  0  0  0  0
   19.3261   20.0988   23.7210 H   0  0  0  0  0  0  0  0  0  0  0  0
  1  2  1  0  0  0  0
  1  3  2  0  0  0  0
  1  4  1  0  0  0  0
  4  5  1  0  0  0  0
  4  6  1  0  0  0  0
  4  7  1  0  0  0  0
  7  8  1  0  0  0  0
  7  9  1  0  0  0  0
  7 10  1  0  0  0  0
 10 11  1  0  0  0  0
 10 12  1  0  0  0  0
 10 13  1  0  0  0  0
M  END
> <VConfSearch Rank>
838

> <Conf_Id>
1

> <Delta U+W>
-1.339

> <U+W>
-59.672

> <U>
7.389

> <W>
-67.061

> <W(PB)>
-68.767

> <W(SA)>
1.707

> <Valence>
5.822

> <Coulomb>
1.255

> <VdW>
0.312

> <VdW6>
-3.061

> <VdW12>
3.372

> <Bond>
0.059

> <Angle>
2.241

> <Pdih>
3.522

> <Idih>
0.000

> <Tether>
0.000

$$$$
VeraChem MOL file


 13 12  0  0  0  0  0  0  0  0999 V2000     
   20.1955   20.7578   21.9622 C   0  0  0  0  0  0  0  0  0  0  0  0
   19.1544   21.3371   22.2003 O   0  5  0  0  0  0  0  0  0  0  0  0
   21.2776   21.1309   22.3694 O   0  0  0  0  0  0  0  0  0  0  0  0
   20.1426   19.5166   21.0750 C   0  0  0  0  0  0  0  0  0  0  0  0
   21.1523   19.3094   20.6999 H   0  0  0  0  0  0  0  0  0  0  0  0
   19.5255   19.7639   20.2030 H   0  0  0  0  0  0  0  0  0  0  0  0
   19.5651   18.2599   21.7755 C   0  0  0  0  0  0  0  0  0  0  0  0
   18.5709   18.4906   22.1835 H   0  0  0  0  0  0  0  0  0  0  0  0
   19.4237   17.4654   21.0302 H   0  0  0  0  0  0  0  0  0  0  0  0
   20.4818   17.7377   22.9011 C   0  0  0  0  0  0  0  0  0  0  0  0
   20.6097   18.4927   23.6881 H   0  0  0  0  0  0  0  0  0  0  0  0
   20.0541   16.8379   23.3621 H   0  0  0  0  0  0  0  0  0  0  0  0
   21.4749   17.4799   22.5104 H   0  0  0  0  0  0  0  0  0  0  0  0
  1  2  1  0  0  0  0
  1  3  2  0  0  0  0
  1  4  1  0  0  0  0
  4  5  1  0  0  0  0
  4  6  1  0  0  0  0
  4  7  1  0  0  0  0
  7  8  1  0  0  0  0
  7  9  1  0  0  0  0
  7 10  1  0  0  0  0
 10 11  1  0  0  0  0
 10 12  1  0  0  0  0
 10 13  1  0  0  0  0
M  END
> <VConfSearch Rank>
839

> <Conf_Id>
4

> <Delta U+W>
0.281

> <U+W>
-58.051

> <U>
9.781

> <W>
-67.832

> <W(PB)>
-69.535

> <W(SA)>
1.703

> <Valence>
6.123

> <Coulomb>
3.449

> <VdW>
0.209

> <VdW6>
-3.762

> <VdW12>
3.972

> <Bond>
0.078

> <Angle>
2.428

> <Pdih>
3.616

> <Idih>
0.002

> <Tether>
0.000

$$$$
VeraChem MOL file


 13 12  0  0  0  0  0  0  0  0999 V2000     
   20.6718   19.9932   23.3575 C   0  0  0  0  0  0  0  0  0  0  0  0
   21.0063   19.2883   24.2886 O   0  5  0  0  0  0  0  0  0  0  0  0
   21.2489   21.0179   23.0523 O   0  0  0  0  0  0  0  0  0  0  0  0
   19.4406   19.5917   22.5490 C   0  0  0  0  0  0  0  0  0  0  0  0
   18.8089   20.4826   22.4512 H   0  0  0  0  0  0  0  0  0  0  0  0
   18.8654   18.8573   23.1260 H   0  0  0  0  0  0  0  0  0  0  0  0
   19.7620   19.0304   21.1401 C   0  0  0  0  0  0  0  0  0  0  0  0
   18.8257   18.9116   20.5778 H   0  0  0  0  0  0  0  0  0  0  0  0
   20.3732   19.7563   20.5856 H   0  0  0  0  0  0  0  0  0  0  0  0
   20.4909   17.6720   21.1979 C   0  0  0  0  0  0  0  0  0  0  0  0
   19.8869   16.9248   21.7292 H   0  0  0  0  0  0  0  0  0  0  0  0
   20.6856   17.2940   20.1858 H   0  0  0  0  0  0  0  0  0  0  0  0
   21.4548   17.7631   21.7160 H   0  0  0  0  0  0  0  0  0  0  0  0
  1  2  1  0  0  0  0
  1  3  2  0  0  0  0
  1  4  1  0  0  0  0
  4  5  1  0  0  0  0
  4  6  1  0  0  0  0
  4  7  1  0  0  0  0
  7  8  1  0  0  0  0
  7  9  1  0  0  0  0
  7 10  1  0  0  0  0
 10 11  1  0  0  0  0
 10 12  1  0  0  0  0
 10 13  1  0  0  0  0
M  END
> <VConfSearch Rank>
840

> <Conf_Id>
36

> <Delta U+W>
0.272

> <U+W>
-58.060

> <U>
9.781

> <W>
-67.841

> <W(PB)>
-69.537

> <W(SA)>
1.696

> <Valence>
6.123

> <Coulomb>
3.449

> <VdW>
0.209

> <VdW6>
-3.762

> <VdW12>
3.972

> <Bond>
0.078

> <Angle>
2.428

> <Pdih>
3.616

> <Idih>
0.002

> <Tether>
0.000

$$$$
VeraChem MOL file


 13 12  0  0  0  0  0  0  0  0999 V2000     
   21.8434   19.3772   22.8652 C   0  0  0  0  0  0  0  0  0  0  0  0
   21.4259   19.4525   24.0042 O   0  5  0  0  0  0  0  0  0  0  0  0
   23.0169   19.5079   22.5810 O   0  0  0  0  0  0  0  0  0  0  0  0
   20.8715   19.1069   21.7150 C   0  0  0  0  0  0  0  0  0  0  0  0
   21.2131   18.1989   21.2038 H   0  0  0  0  0  0  0  0  0  0  0  0
   20.9709   19.9330   21.0008 H   0  0  0  0  0  0  0  0  0  0  0  0
   19.3842   18.9472   22.1254 C   0  0  0  0  0  0  0  0  0  0  0  0
   19.2872   18.1207   22.8432 H   0  0  0  0  0  0  0  0  0  0  0  0
   19.0448   19.8569   22.6401 H   0  0  0  0  0  0  0  0  0  0  0  0
   18.4821   18.6783   20.9041 C   0  0  0  0  0  0  0  0  0  0  0  0
   18.7820   17.7559   20.3896 H   0  0  0  0  0  0  0  0  0  0  0  0
   17.4347   18.5683   21.2140 H   0  0  0  0  0  0  0  0  0  0  0  0
   18.5376   19.5060   20.1848 H   0  0  0  0  0  0  0  0  0  0  0  0
  1  2  1  0  0  0  0
  1  3  2  0  0  0  0
  1  4  1  0  0  0  0
  4  5  1  0  0  0  0
  4  6  1  0  0  0  0
  4  7  1  0  0  0  0
  7  8  1  0  0  0  0
  7  9  1  0  0  0  0
  7 10  1  0  0  0  0
 10 11  1  0  0  0  0
 10 12  1  0  0  0  0
 10 13  1  0  0  0  0
M  END
> <VConfSearch Rank>
841

> <Conf_Id>
0

> <Delta U+W>
0.000

> <U+W>
-58.332

> <U>
8.390

> <W>
-66.722

> <W(PB)>
-68.455

> <W(SA)>
1.733

> <Valence>
6.333

> <Coulomb>
1.215

> <VdW>
0.842

> <VdW6>
-3.344

> <VdW12>
4.186

> <Bond>
0.091

> <Angle>
2.713

> <Pdih>
3.529

> <Idih>
0.000

> <Tether>
0.000

$$$$
VeraChem MOL file


 13 12  0  0  0  0  0  0  0  0999 V2000     
   18.8267   17.5150   20.9466 C   0  0  0  0  0  0  0  0  0  0  0  0
   19.3238   16.4068   20.9286 O   0  5  0  0  0  0  0  0  0  0  0  0
   17.9747   17.8810   20.1621 O   0  0  0  0  0  0  0  0  0  0  0  0
   19.3121   18.5063   21.9988 C   0  0  0  0  0  0  0  0  0  0  0  0
   19.5843   17.9424   22.8993 H   0  0  0  0  0  0  0  0  0  0  0  0
   18.4717   19.1581   22.2672 H   0  0  0  0  0  0  0  0  0  0  0  0
   20.5134   19.3565   21.5193 C   0  0  0  0  0  0  0  0  0  0  0  0
   21.3452   18.6931   21.2439 H   0  0  0  0  0  0  0  0  0  0  0  0
   20.2323   19.9090   20.6118 H   0  0  0  0  0  0  0  0  0  0  0  0
   20.9797   20.3475   22.6045 C   0  0  0  0  0  0  0  0  0  0  0  0
   21.8312   20.9407   22.2464 H   0  0  0  0  0  0  0  0  0  0  0  0
   20.1731   21.0415   22.8754 H   0  0  0  0  0  0  0  0  0  0  0  0
   21.2946   19.8162   23.5124 H   0  0  0  0  0  0  0  0  0  0  0  0
  1  2  1  0  0  0  0
  1  3  2  0  0  0  0
  1  4  1  0  0  0  0
  4  5  1  0  0  0  0
  4  6  1  0  0  0  0
  4  7  1  0  0  0  0
  7  8  1  0  0  0  0
  7  9  1  0  0  0  0
  7 10  1  0  0  0  0
 10 11  1  0  0  0  0
 10 12  1  0  0  0  0
 10 13  1  0  0  0  0
M  END
> <VConfSearch Rank>
842

> <Conf_Id>
1

> <Delta U+W>
-1.339

> <U+W>
-59.672

> <U>
7.389

> <W>
-67.061

> <W(PB)>
-68.767

> <W(SA)>
1.707

> <Valence>
5.822

> <Coulomb>
1.255

> <VdW>
0.312

> <VdW6>
-3.061

> <VdW12>
3.372

> <Bond>
0.059

> <Angle>
2.241

> <Pdih>
3.522

> <Idih>
0.000

> <Tether>
0.000

$$$$
VeraChem MOL file


 13 12  0  0  0  0  0  0  0  0999 V2000     
   19.2536   20.4885   22.3685 C   0  0  0  0  0  0  0  0  0  0  0  0
   19.9357   21.4091   22.7727 O   0  5  0  0  0  0  0  0  0  0  0  0
   18.3313   20.6299   21.5905 O   0  0  0  0  0  0  0  0  0  0  0  0
   19.5504   19.0867   22.8953 C   0  0  0  0  0  0  0  0  0  0  0  0
   18.6806   18.4469   22.7013 H   0  0  0  0  0  0  0  0  0  0  0  0
   19.6518   19.1613   23.9845 H   0  0  0  0  0  0  0  0  0  0  0  0
   20.8295   18.4431   22.3012 C   0  0  0  0  0  0  0  0  0  0  0  0
   21.6870   19.1109   22.4646 H   0  0  0  0  0  0  0  0  0  0  0  0
   21.0477   17.5115   22.8410 H   0  0  0  0  0  0  0  0  0  0  0  0
   20.6901   18.1328   20.7965 C   0  0  0  0  0  0  0  0  0  0  0  0
   20.5150   19.0501   20.2189 H   0  0  0  0  0  0  0  0  0  0  0  0
   21.6039   17.6609   20.4126 H   0  0  0  0  0  0  0  0  0  0  0  0
   19.8515   17.4483   20.6131 H   0  0  0  0  0  0  0  0  0  0  0  0
  1  2  1  0  0  0  0
  1  3  2  0  0  0  0
  1  4  1  0  0  0  0
  4  5  1  0  0  0  0
  4  6  1  0  0  0  0
  4  7  1  0  0  0  0
  7  8  1  0  0  0  0
  7  9  1  0  0  0  0
  7 10  1  0  0  0  0
 10 11  1  0  0  0  0
 10 12  1  0  0  0  0
 10 13  1  0  0  0  0
M  END
> <VConfSearch Rank>
843

> <Conf_Id>
4

> <Delta U+W>
0.281

> <U+W>
-58.051

> <U>
9.781

> <W>
-67.832

> <W(PB)>
-69.535

> <W(SA)>
1.703

> <Valence>
6.123

> <Coulomb>
3.449

> <VdW>
0.209

> <VdW6>
-3.762

> <VdW12>
3.972

> <Bond>
0.078

> <Angle>
2.428

> <Pdih>
3.616

> <Idih>
0.002

> <Tether>
0.000

$$$$
VeraChem MOL file


 13 12  0  0  0  0  0  0  0  0999 V2000     
   21.3771   18.4315   23.1521 C   0  0  0  0  0  0  0  0  0  0  0  0
   20.8535   18.0704   24.1872 O   0  5  0  0  0  0  0  0  0  0  0  0
   22.3479   17.8854   22.6668 O   0  0  0  0  0  0  0  0  0  0  0  0
   20.8094   19.6572   22.4407 C   0  0  0  0  0  0  0  0  0  0  0  0
   21.6530   20.3142   22.1977 H   0  0  0  0  0  0  0  0  0  0  0  0
   20.1716   20.2074   23.1434 H   0  0  0  0  0  0  0  0  0  0  0  0
   20.0205   19.3310   21.1466 C   0  0  0  0  0  0  0  0  0  0  0  0
   19.7814   20.2679   20.6251 H   0  0  0  0  0  0  0  0  0  0  0  0
   20.6547   18.7445   20.4673 H   0  0  0  0  0  0  0  0  0  0  0  0
   18.7122   18.5642   21.4302 C   0  0  0  0  0  0  0  0  0  0  0  0
   18.0532   19.1432   22.0904 H   0  0  0  0  0  0  0  0  0  0  0  0
   18.1694   18.3669   20.4966 H   0  0  0  0  0  0  0  0  0  0  0  0
   18.9170   17.5993   21.9128 H   0  0  0  0  0  0  0  0  0  0  0  0
  1  2  1  0  0  0  0
  1  3  2  0  0  0  0
  1  4  1  0  0  0  0
  4  5  1  0  0  0  0
  4  6  1  0  0  0  0
  4  7  1  0  0  0  0
  7  8  1  0  0  0  0
  7  9  1  0  0  0  0
  7 10  1  0  0  0  0
 10 11  1  0  0  0  0
 10 12  1  0  0  0  0
 10 13  1  0  0  0  0
M  END
> <VConfSearch Rank>
844

> <Conf_Id>
36

> <Delta U+W>
0.272

> <U+W>
-58.060

> <U>
9.781

> <W>
-67.841

> <W(PB)>
-69.537

> <W(SA)>
1.696

> <Valence>
6.123

> <Coulomb>
3.449

> <VdW>
0.209

> <VdW6>
-3.762

> <VdW12>
3.972

> <Bond>
0.078

> <Angle>
2.428

> <Pdih>
3.616

> <Idih>
0.002

> <Tether>
0.000

$$$$
VeraChem MOL file


 13 12  0  0  0  0  0  0  0  0999 V2000     
   19.6143   17.5609   20.3017 C   0  0  0  0  0  0  0  0  0  0  0  0
   18.4914   17.8989   19.9821 O   0  5  0  0  0  0  0  0  0  0  0  0
   20.1958   16.6274   19.7867 O   0  0  0  0  0  0  0  0  0  0  0  0
   20.3554   18.3261   21.3999 C   0  0  0  0  0  0  0  0  0  0  0  0
   21.2946   18.6915   20.9680 H   0  0  0  0  0  0  0  0  0  0  0  0
   20.6216   17.6033   22.1804 H   0  0  0  0  0  0  0  0  0  0  0  0
   19.5740   19.5095   22.0283 C   0  0  0  0  0  0  0  0  0  0  0  0
   19.3056   20.2311   21.2441 H   0  0  0  0  0  0  0  0  0  0  0  0
   18.6317   19.1416   22.4579 H   0  0  0  0  0  0  0  0  0  0  0  0
   20.3974   20.2188   23.1222 C   0  0  0  0  0  0  0  0  0  0  0  0
   21.3315   20.6233   22.7107 H   0  0  0  0  0  0  0  0  0  0  0  0
   19.8287   21.0523   23.5547 H   0  0  0  0  0  0  0  0  0  0  0  0
   20.6523   19.5250   23.9342 H   0  0  0  0  0  0  0  0  0  0  0  0
  1  2  1  0  0  0  0
  1  3  2  0  0  0  0
  1  4  1  0  0  0  0
  4  5  1  0  0  0  0
  4  6  1  0  0  0  0
  4  7  1  0  0  0  0
  7  8  1  0  0  0  0
  7  9  1  0  0  0  0
  7 10  1  0  0  0  0
 10 11  1  0  0  0  0
 10 12  1  0  0  0  0
 10 13  1  0  0  0  0
M  END
> <VConfSearch Rank>
845

> <Conf_Id>
0

> <Delta U+W>
0.000

> <U+W>
-58.332

> <U>
8.390

> <W>
-66.722

> <W(PB)>
-68.455

> <W(SA)>
1.733

> <Valence>
6.333

> <Coulomb>
1.215

> <VdW>
0.842

> <VdW6>
-3.344

> <VdW12>
4.186

> <Bond>
0.091

> <Angle>
2.713

> <Pdih>
3.529

> <Idih>
0.000

> <Tether>
0.000

$$$$
VeraChem MOL file


 13 12  0  0  0  0  0  0  0  0999 V2000     
   18.0827   18.1837   21.5286 C   0  0  0  0  0  0  0  0  0  0  0  0
   17.6348   18.2635   20.4024 O   0  5  0  0  0  0  0  0  0  0  0  0
   17.3904   18.0579   22.5187 O   0  0  0  0  0  0  0  0  0  0  0  0
   19.5945   18.2647   21.7111 C   0  0  0  0  0  0  0  0  0  0  0  0
   20.0693   17.8163   20.8299 H   0  0  0  0  0  0  0  0  0  0  0  0
   19.8677   17.6467   22.5751 H   0  0  0  0  0  0  0  0  0  0  0  0
   20.1022   19.7133   21.9105 C   0  0  0  0  0  0  0  0  0  0  0  0
   19.8144   20.3250   21.0441 H   0  0  0  0  0  0  0  0  0  0  0  0
   19.6129   20.1553   22.7897 H   0  0  0  0  0  0  0  0  0  0  0  0
   21.6326   19.7610   22.0918 C   0  0  0  0  0  0  0  0  0  0  0  0
   21.9734   20.7952   22.2317 H   0  0  0  0  0  0  0  0  0  0  0  0
   21.9424   19.1802   22.9707 H   0  0  0  0  0  0  0  0  0  0  0  0
   22.1454   19.3512   21.2116 H   0  0  0  0  0  0  0  0  0  0  0  0
  1  2  1  0  0  0  0
  1  3  2  0  0  0  0
  1  4  1  0  0  0  0
  4  5  1  0  0  0  0
  4  6  1  0  0  0  0
  4  7  1  0  0  0  0
  7  8  1  0  0  0  0
  7  9  1  0  0  0  0
  7 10  1  0  0  0  0
 10 11  1  0  0  0  0
 10 12  1  0  0  0  0
 10 13  1  0  0  0  0
M  END
> <VConfSearch Rank>
846

> <Conf_Id>
1

> <Delta U+W>
-1.339

> <U+W>
-59.672

> <U>
7.389

> <W>
-67.061

> <W(PB)>
-68.767

> <W(SA)>
1.707

> <Valence>
5.822

> <Coulomb>
1.255

> <VdW>
0.312

> <VdW6>
-3.061

> <VdW12>
3.372

> <Bond>
0.059

> <Angle>
2.241

> <Pdih>
3.522

> <Idih>
0.000

> <Tether>
0.000

$$$$
VeraChem MOL file


 13 12  0  0  0  0  0  0  0  0999 V2000     
   20.1309   19.8224   23.5718 C   0  0  0  0  0  0  0  0  0  0  0  0
   20.3612   19.1383   24.5491 O   0  5  0  0  0  0  0  0  0  0  0  0
   20.5671   20.9465   23.4236 O   0  0  0  0  0  0  0  0  0  0  0  0
   19.2160   19.2507   22.4917 C   0  0  0  0  0  0  0  0  0  0  0  0
   18.8562   20.0748   21.8635 H   0  0  0  0  0  0  0  0  0  0  0  0
   18.3377   18.8302   22.9960 H   0  0  0  0  0  0  0  0  0  0  0  0
   19.8776   18.1587   21.6123 C   0  0  0  0  0  0  0  0  0  0  0  0
   20.2710   17.3581   22.2543 H   0  0  0  0  0  0  0  0  0  0  0  0
   19.1124   17.7012   20.9704 H   0  0  0  0  0  0  0  0  0  0  0  0
   21.0091   18.7196   20.7263 C   0  0  0  0  0  0  0  0  0  0  0  0
   21.8147   19.1465   21.3383 H   0  0  0  0  0  0  0  0  0  0  0  0
   21.4420   17.9261   20.1033 H   0  0  0  0  0  0  0  0  0  0  0  0
   20.6323   19.5069   20.0603 H   0  0  0  0  0  0  0  0  0  0  0  0
  1  2  1  0  0  0  0
  1  3  2  0  0  0  0
  1  4  1  0  0  0  0
  4  5  1  0  0  0  0
  4  6  1  0  0  0  0
  4  7  1  0  0  0  0
  7  8  1  0  0  0  0
  7  9  1  0  0  0  0
  7 10  1  0  0  0  0
 10 11  1  0  0  0  0
 10 12  1  0  0  0  0
 10 13  1  0  0  0  0
M  END
> <VConfSearch Rank>
847

> <Conf_Id>
4

> <Delta U+W>
0.281

> <U+W>
-58.051

> <U>
9.781

> <W>
-67.832

> <W(PB)>
-69.535

> <W(SA)>
1.703

> <Valence>
6.123

> <Coulomb>
3.449

> <VdW>
0.209

> <VdW6>
-3.762

> <VdW12>
3.972

> <Bond>
0.078

> <Angle>
2.428

> <Pdih>
3.616

> <Idih>
0.002

> <Tether>
0.000

$$$$
VeraChem MOL file


 13 12  0  0  0  0  0  0  0  0999 V2000     
   19.4979   18.8215   20.3216 C   0  0  0  0  0  0  0  0  0  0  0  0
   18.2874   18.9242   20.3243 O   0  5  0  0  0  0  0  0  0  0  0  0
   20.2070   19.2817   19.4489 O   0  0  0  0  0  0  0  0  0  0  0  0
   20.1627   18.0432   21.4542 C   0  0  0  0  0  0  0  0  0  0  0  0
   20.8708   17.3416   20.9972 H   0  0  0  0  0  0  0  0  0  0  0  0
   19.3999   17.4387   21.9602 H   0  0  0  0  0  0  0  0  0  0  0  0
   20.9084   18.9318   22.4826 C   0  0  0  0  0  0  0  0  0  0  0  0
   21.4774   18.2890   23.1680 H   0  0  0  0  0  0  0  0  0  0  0  0
   21.6411   19.5629   21.9603 H   0  0  0  0  0  0  0  0  0  0  0  0
   19.9484   19.8180   23.3030 C   0  0  0  0  0  0  0  0  0  0  0  0
   19.2208   19.2053   23.8512 H   0  0  0  0  0  0  0  0  0  0  0  0
   20.5056   20.4187   24.0336 H   0  0  0  0  0  0  0  0  0  0  0  0
   19.3935   20.5066   22.6520 H   0  0  0  0  0  0  0  0  0  0  0  0
  1  2  1  0  0  0  0
  1  3  2  0  0  0  0
  1  4  1  0  0  0  0
  4  5  1  0  0  0  0
  4  6  1  0  0  0  0
  4  7  1  0  0  0  0
  7  8  1  0  0  0  0
  7  9  1  0  0  0  0
  7 10  1  0  0  0  0
 10 11  1  0  0  0  0
 10 12  1  0  0  0  0
 10 13  1  0  0  0  0
M  END
> <VConfSearch Rank>
848

> <Conf_Id>
36

> <Delta U+W>
0.272

> <U+W>
-58.060

> <U>
9.781

> <W>
-67.841

> <W(PB)>
-69.537

> <W(SA)>
1.696

> <Valence>
6.123

> <Coulomb>
3.449

> <VdW>
0.209

> <VdW6>
-3.762

> <VdW12>
3.972

> <Bond>
0.078

> <Angle>
2.428

> <Pdih>
3.616

> <Idih>
0.002

> <Tether>
0.000

$$$$
VeraChem MOL file


 13 12  0  0  0  0  0  0  0  0999 V2000     
   19.4149   17.0860   22.5363 C   0  0  0  0  0  0  0  0  0  0  0  0
   18.4860   17.4088   23.2506 O   0  5  0  0  0  0  0  0  0  0  0  0
   19.7651   15.9327   22.3876 O   0  0  0  0  0  0  0  0  0  0  0  0
   20.1987   18.1581   21.7767 C   0  0  0  0  0  0  0  0  0  0  0  0
   20.1458   17.9088   20.7102 H   0  0  0  0  0  0  0  0  0  0  0  0
   21.2501   18.0682   22.0748 H   0  0  0  0  0  0  0  0  0  0  0  0
   19.7159   19.6155   21.9973 C   0  0  0  0  0  0  0  0  0  0  0  0
   18.6612   19.7027   21.7007 H   0  0  0  0  0  0  0  0  0  0  0  0
   19.7669   19.8623   23.0670 H   0  0  0  0  0  0  0  0  0  0  0  0
   20.5626   20.6236   21.1944 C   0  0  0  0  0  0  0  0  0  0  0  0
   20.5031   20.4170   20.1176 H   0  0  0  0  0  0  0  0  0  0  0  0
   20.2064   21.6483   21.3630 H   0  0  0  0  0  0  0  0  0  0  0  0
   21.6176   20.5778   21.4948 H   0  0  0  0  0  0  0  0  0  0  0  0
  1  2  1  0  0  0  0
  1  3  2  0  0  0  0
  1  4  1  0  0  0  0
  4  5  1  0  0  0  0
  4  6  1  0  0  0  0
  4  7  1  0  0  0  0
  7  8  1  0  0  0  0
  7  9  1  0  0  0  0
  7 10  1  0  0  0  0
 10 11  1  0  0  0  0
 10 12  1  0  0  0  0
 10 13  1  0  0  0  0
M  END
> <VConfSearch Rank>
849

> <Conf_Id>
0

> <Delta U+W>
0.000

> <U+W>
-58.332

> <U>
8.390

> <W>
-66.722

> <W(PB)>
-68.455

> <W(SA)>
1.733

> <Valence>
6.333

> <Coulomb>
1.215

> <VdW>
0.842

> <VdW6>
-3.344

> <VdW12>
4.186

> <Bond>
0.091

> <Angle>
2.713

> <Pdih>
3.529

> <Idih>
0.000

> <Tether>
0.000

$$$$
VeraChem MOL file


 13 12  0  0  0  0  0  0  0  0999 V2000     
   21.4691   20.3597   22.5588 C   0  0  0  0  0  0  0  0  0  0  0  0
   22.4088   19.8452   23.1311 O   0  5  0  0  0  0  0  0  0  0  0  0
   21.1158   21.5067   22.7458 O   0  0  0  0  0  0  0  0  0  0  0  0
   20.6786   19.5142   21.5659 C   0  0  0  0  0  0  0  0  0  0  0  0
   21.3704   18.8062   21.0936 H   0  0  0  0  0  0  0  0  0  0  0  0
   20.3042   20.1764   20.7758 H   0  0  0  0  0  0  0  0  0  0  0  0
   19.5029   18.7517   22.2234 C   0  0  0  0  0  0  0  0  0  0  0  0
   19.8885   18.0994   23.0194 H   0  0  0  0  0  0  0  0  0  0  0  0
   18.8220   19.4698   22.7014 H   0  0  0  0  0  0  0  0  0  0  0  0
   18.7247   17.9073   21.1944 C   0  0  0  0  0  0  0  0  0  0  0  0
   17.8959   17.3747   21.6789 H   0  0  0  0  0  0  0  0  0  0  0  0
   18.3036   18.5419   20.4035 H   0  0  0  0  0  0  0  0  0  0  0  0
   19.3783   17.1610   20.7240 H   0  0  0  0  0  0  0  0  0  0  0  0
  1  2  1  0  0  0  0
  1  3  2  0  0  0  0
  1  4  1  0  0  0  0
  4  5  1  0  0  0  0
  4  6  1  0  0  0  0
  4  7  1  0  0  0  0
  7  8  1  0  0  0  0
  7  9  1  0  0  0  0
  7 10  1  0  0  0  0
 10 11  1  0  0  0  0
 10 12  1  0  0  0  0
 10 13  1  0  0  0  0
M  END
> <VConfSearch Rank>
850

> <Conf_Id>
1

> <Delta U+W>
-1.339

> <U+W>
-59.672

> <U>
7.389

> <W>
-67.061

> <W(PB)>
-68.767

> <W(SA)>
1.707

> <Valence>
5.822

> <Coulomb>
1.255

> <VdW>
0.312

> <VdW6>
-3.061

> <VdW12>
3.372

> <Bond>
0.059

> <Angle>
2.241

> <Pdih>
3.522

> <Idih>
0.000

> <Tether>
0.000

$$$$
VeraChem MOL file


 13 12  0  0  0  0  0  0  0  0999 V2000     
   18.9235   20.2804   22.2053 C   0  0  0  0  0  0  0  0  0  0  0  0
   19.0816   20.9997   23.1716 O   0  5  0  0  0  0  0  0  0  0  0  0
   18.5744   20.6896   21.1160 O   0  0  0  0  0  0  0  0  0  0  0  0
   19.1411   18.7796   22.3812 C   0  0  0  0  0  0  0  0  0  0  0  0
   18.6616   18.2547   21.5459 H   0  0  0  0  0  0  0  0  0  0  0  0
   18.6105   18.4768   23.2918 H   0  0  0  0  0  0  0  0  0  0  0  0
   20.6303   18.3626   22.4895 C   0  0  0  0  0  0  0  0  0  0  0  0
   21.1114   18.9245   23.3024 H   0  0  0  0  0  0  0  0  0  0  0  0
   20.6876   17.3002   22.7632 H   0  0  0  0  0  0  0  0  0  0  0  0
   21.4032   18.5862   21.1732 C   0  0  0  0  0  0  0  0  0  0  0  0
   21.4043   19.6475   20.8916 H   0  0  0  0  0  0  0  0  0  0  0  0
   22.4471   18.2630   21.2778 H   0  0  0  0  0  0  0  0  0  0  0  0
   20.9517   18.0153   20.3512 H   0  0  0  0  0  0  0  0  0  0  0  0
  1  2  1  0  0  0  0
  1  3  2  0  0  0  0
  1  4  1  0  0  0  0
  4  5  1  0  0  0  0
  4  6  1  0  0  0  0
  4  7  1  0  0  0  0
  7  8  1  0  0  0  0
  7  9  1  0  0  0  0
  7 10  1  0  0  0  0
 10 11  1  0  0  0  0
 10 12  1  0  0  0  0
 10 13  1  0  0  0  0
M  END
> <VConfSearch Rank>
851

> <Conf_Id>
4

> <Delta U+W>
0.281

> <U+W>
-58.051

> <U>
9.781

> <W>
-67.832

> <W(PB)>
-69.535

> <W(SA)>
1.703

> <Valence>
6.123

> <Coulomb>
3.449

> <VdW>
0.209

> <VdW6>
-3.762

> <VdW12>
3.972

> <Bond>
0.078

> <Angle>
2.428

> <Pdih>
3.616

> <Idih>
0.002

> <Tether>
0.000

$$$$
VeraChem MOL file


 13 12  0  0  0  0  0  0  0  0999 V2000     
   18.3858   18.5097   22.0566 C   0  0  0  0  0  0  0  0  0  0  0  0
   18.0180   18.4577   23.2133 O   0  5  0  0  0  0  0  0  0  0  0  0
   17.6918   18.9282   21.1515 O   0  0  0  0  0  0  0  0  0  0  0  0
   19.7795   17.9892   21.7142 C   0  0  0  0  0  0  0  0  0  0  0  0
   19.6769   17.3256   20.8474 H   0  0  0  0  0  0  0  0  0  0  0  0
   20.1378   17.3705   22.5461 H   0  0  0  0  0  0  0  0  0  0  0  0
   20.8109   19.1011   21.3930 C   0  0  0  0  0  0  0  0  0  0  0  0
   21.7326   18.6385   21.0143 H   0  0  0  0  0  0  0  0  0  0  0  0
   20.4239   19.7399   20.5867 H   0  0  0  0  0  0  0  0  0  0  0  0
   21.1502   19.9654   22.6250 C   0  0  0  0  0  0  0  0  0  0  0  0
   21.5600   19.3491   23.4359 H   0  0  0  0  0  0  0  0  0  0  0  0
   21.8963   20.7287   22.3684 H   0  0  0  0  0  0  0  0  0  0  0  0
   20.2572   20.4795   23.0045 H   0  0  0  0  0  0  0  0  0  0  0  0
  1  2  1  0  0  0  0
  1  3  2  0  0  0  0
  1  4  1  0  0  0  0
  4  5  1  0  0  0  0
  4  6  1  0  0  0  0
  4  7  1  0  0  0  0
  7  8  1  0  0  0  0
  7  9  1  0  0  0  0
  7 10  1  0  0  0  0
 10 11  1  0  0  0  0
 10 12  1  0  0  0  0
 10 13  1  0  0  0  0
M  END
> <VConfSearch Rank>
852

> <Conf_Id>
36

> <Delta U+W>
0.272

> <U+W>
-58.060

> <U>
9.781

> <W>
-67.841

> <W(PB)>
-69.537

> <W(SA)>
1.696

> <Valence>
6.123

> <Coulomb>
3.449

> <VdW>
0.209

> <VdW6>
-3.762

> <VdW12>
3.972

> <Bond>
0.078

> <Angle>
2.428

> <Pdih>
3.616

> <Idih>
0.002

> <Tether>
0.000

$$$$
VeraChem MOL file


 13 12  0  0  0  0  0  0  0  0999 V2000     
   21.2640   17.7201   20.6519 C   0  0  0  0  0  0  0  0  0  0  0  0
   20.4170   17.0428   20.1031 O   0  5  0  0  0  0  0  0  0  0  0  0
   22.4545   17.5688   20.4659 O   0  0  0  0  0  0  0  0  0  0  0  0
   20.8432   18.8211   21.6272 C   0  0  0  0  0  0  0  0  0  0  0  0
   21.2645   19.7640   21.2586 H   0  0  0  0  0  0  0  0  0  0  0  0
   21.3256   18.6091   22.5888 H   0  0  0  0  0  0  0  0  0  0  0  0
   19.3138   18.9774   21.8331 C   0  0  0  0  0  0  0  0  0  0  0  0
   18.8319   19.1870   20.8679 H   0  0  0  0  0  0  0  0  0  0  0  0
   18.8931   18.0306   22.1997 H   0  0  0  0  0  0  0  0  0  0  0  0
   18.9859   20.1077   22.8296 C   0  0  0  0  0  0  0  0  0  0  0  0
   19.3694   21.0717   22.4703 H   0  0  0  0  0  0  0  0  0  0  0  0
   17.9003   20.2031   22.9623 H   0  0  0  0  0  0  0  0  0  0  0  0
   19.4311   19.9061   23.8128 H   0  0  0  0  0  0  0  0  0  0  0  0
  1  2  1  0  0  0  0
  1  3  2  0  0  0  0
  1  4  1  0  0  0  0
  4  5  1  0  0  0  0
  4  6  1  0  0  0  0
  4  7  1  0  0  0  0
  7  8  1  0  0  0  0
  7  9  1  0  0  0  0
  7 10  1  0  0  0  0
 10 11  1  0  0  0  0
 10 12  1  0  0  0  0
 10 13  1  0  0  0  0
M  END
> <VConfSearch Rank>
853

> <Conf_Id>
0

> <Delta U+W>
0.000

> <U+W>
-58.332

> <U>
8.390

> <W>
-66.722

> <W(PB)>
-68.455

> <W(SA)>
1.733

> <Valence>
6.333

> <Coulomb>
1.215

> <VdW>
0.842

> <VdW6>
-3.344

> <VdW12>
4.186

> <Bond>
0.091

> <Angle>
2.713

> <Pdih>
3.529

> <Idih>
0.000

> <Tether>
0.000

$$$$
VeraChem MOL file


 13 12  0  0  0  0  0  0  0  0999 V2000     
   17.9621   18.8463   22.3912 C   0  0  0  0  0  0  0  0  0  0  0  0
   17.4997   17.7242   22.3431 O   0  5  0  0  0  0  0  0  0  0  0  0
   17.2881   19.8537   22.3119 O   0  0  0  0  0  0  0  0  0  0  0  0
   19.4721   18.9986   22.5403 C   0  0  0  0  0  0  0  0  0  0  0  0
   19.8426   18.1572   23.1385 H   0  0  0  0  0  0  0  0  0  0  0  0
   19.6681   19.9134   23.1127 H   0  0  0  0  0  0  0  0  0  0  0  0
   20.2110   19.0520   21.1812 C   0  0  0  0  0  0  0  0  0  0  0  0
   19.9994   18.1356   20.6127 H   0  0  0  0  0  0  0  0  0  0  0  0
   19.8250   19.8921   20.5870 H   0  0  0  0  0  0  0  0  0  0  0  0
   21.7339   19.2060   21.3661 C   0  0  0  0  0  0  0  0  0  0  0  0
   22.2400   19.2420   20.3925 H   0  0  0  0  0  0  0  0  0  0  0  0
   21.9724   20.1315   21.9065 H   0  0  0  0  0  0  0  0  0  0  0  0
   22.1482   18.3615   21.9324 H   0  0  0  0  0  0  0  0  0  0  0  0
  1  2  1  0  0  0  0
  1  3  2  0  0  0  0
  1  4  1  0  0  0  0
  4  5  1  0  0  0  0
  4  6  1  0  0  0  0
  4  7  1  0  0  0  0
  7  8  1  0  0  0  0
  7  9  1  0  0  0  0
  7 10  1  0  0  0  0
 10 11  1  0  0  0  0
 10 12  1  0  0  0  0
 10 13  1  0  0  0  0
M  END
> <VConfSearch Rank>
854

> <Conf_Id>
1

> <Delta U+W>
-1.339

> <U+W>
-59.672

> <U>
7.389

> <W>
-67.061

> <W(PB)>
-68.767

> <W(SA)>
1.707

> <Valence>
5.822

> <Coulomb>
1.255

> <VdW>
0.312

> <VdW6>
-3.061

> <VdW12>
3.372

> <Bond>
0.059

> <Angle>
2.241

> <Pdih>
3.522

> <Idih>
0.000

> <Tether>
0.000

$$$$
VeraChem MOL file


 13 12  0  0  0  0  0  0  0  0999 V2000     
   18.8810   20.2176   22.3135 C   0  0  0  0  0  0  0  0  0  0  0  0
   18.3541   20.7058   21.3336 O   0  5  0  0  0  0  0  0  0  0  0  0
   18.2773   19.9428   23.3313 O   0  0  0  0  0  0  0  0  0  0  0  0
   20.3870   19.9709   22.2739 C   0  0  0  0  0  0  0  0  0  0  0  0
   20.7491   19.8416   23.3013 H   0  0  0  0  0  0  0  0  0  0  0  0
   20.8575   20.8816   21.8847 H   0  0  0  0  0  0  0  0  0  0  0  0
   20.8090   18.7599   21.4028 C   0  0  0  0  0  0  0  0  0  0  0  0
   20.4064   18.8794   20.3872 H   0  0  0  0  0  0  0  0  0  0  0  0
   21.9035   18.7480   21.3091 H   0  0  0  0  0  0  0  0  0  0  0  0
   20.3393   17.4148   21.9945 C   0  0  0  0  0  0  0  0  0  0  0  0
   19.2440   17.3741   22.0615 H   0  0  0  0  0  0  0  0  0  0  0  0
   20.6708   16.5786   21.3653 H   0  0  0  0  0  0  0  0  0  0  0  0
   20.7489   17.2649   23.0021 H   0  0  0  0  0  0  0  0  0  0  0  0
  1  2  1  0  0  0  0
  1  3  2  0  0  0  0
  1  4  1  0  0  0  0
  4  5  1  0  0  0  0
  4  6  1  0  0  0  0
  4  7  1  0  0  0  0
  7  8  1  0  0  0  0
  7  9  1  0  0  0  0
  7 10  1  0  0  0  0
 10 11  1  0  0  0  0
 10 12  1  0  0  0  0
 10 13  1  0  0  0  0
M  END
> <VConfSearch Rank>
855

> <Conf_Id>
4

> <Delta U+W>
0.281

> <U+W>
-58.051

> <U>
9.781

> <W>
-67.832

> <W(PB)>
-69.535

> <W(SA)>
1.703

> <Valence>
6.123

> <Coulomb>
3.449

> <VdW>
0.209

> <VdW6>
-3.762

> <VdW12>
3.972

> <Bond>
0.078

> <Angle>
2.428

> <Pdih>
3.616

> <Idih>
0.002

> <Tether>
0.000

$$$$
VeraChem MOL file


 13 12  0  0  0  0  0  0  0  0999 V2000     
   19.2531   17.3994   22.0612 C   0  0  0  0  0  0  0  0  0  0  0  0
   18.1702   17.5523   22.5902 O   0  5  0  0  0  0  0  0  0  0  0  0
   19.4409   16.6484   21.1248 O   0  0  0  0  0  0  0  0  0  0  0  0
   20.4497   18.1629   22.6234 C   0  0  0  0  0  0  0  0  0  0  0  0
   21.2678   17.4433   22.7472 H   0  0  0  0  0  0  0  0  0  0  0  0
   20.1943   18.5276   23.6259 H   0  0  0  0  0  0  0  0  0  0  0  0
   20.9275   19.3386   21.7331 C   0  0  0  0  0  0  0  0  0  0  0  0
   21.8730   19.7309   22.1319 H   0  0  0  0  0  0  0  0  0  0  0  0
   21.1410   18.9696   20.7201 H   0  0  0  0  0  0  0  0  0  0  0  0
   19.8961   20.4838   21.6639 C   0  0  0  0  0  0  0  0  0  0  0  0
   19.6847   20.8825   22.6647 H   0  0  0  0  0  0  0  0  0  0  0  0
   20.2730   21.3069   21.0430 H   0  0  0  0  0  0  0  0  0  0  0  0
   18.9500   20.1369   21.2275 H   0  0  0  0  0  0  0  0  0  0  0  0
  1  2  1  0  0  0  0
  1  3  2  0  0  0  0
  1  4  1  0  0  0  0
  4  5  1  0  0  0  0
  4  6  1  0  0  0  0
  4  7  1  0  0  0  0
  7  8  1  0  0  0  0
  7  9  1  0  0  0  0
  7 10  1  0  0  0  0
 10 11  1  0  0  0  0
 10 12  1  0  0  0  0
 10 13  1  0  0  0  0
M  END
> <VConfSearch Rank>
856

> <Conf_Id>
36

> <Delta U+W>
0.272

> <U+W>
-58.060

> <U>
9.781

> <W>
-67.841

> <W(PB)>
-69.537

> <W(SA)>
1.696

> <Valence>
6.123

> <Coulomb>
3.449

> <VdW>
0.209

> <VdW6>
-3.762

> <VdW12>
3.972

> <Bond>
0.078

> <Angle>
2.428

> <Pdih>
3.616

> <Idih>
0.002

> <Tether>
0.000

$$$$
VeraChem MOL file


 13 12  0  0  0  0  0  0  0  0999 V2000     
   19.0308   20.6945   20.9871 C   0  0  0  0  0  0  0  0  0  0  0  0
   17.9706   20.1894   20.6736 O   0  5  0  0  0  0  0  0  0  0  0  0
   19.2858   21.8670   20.8000 O   0  0  0  0  0  0  0  0  0  0  0  0
   20.1139   19.8405   21.6491 C   0  0  0  0  0  0  0  0  0  0  0  0
   20.3555   20.3062   22.6119 H   0  0  0  0  0  0  0  0  0  0  0  0
   21.0130   19.9101   21.0252 H   0  0  0  0  0  0  0  0  0  0  0  0
   19.7438   18.3502   21.8678 C   0  0  0  0  0  0  0  0  0  0  0  0
   18.8410   18.2827   22.4908 H   0  0  0  0  0  0  0  0  0  0  0  0
   19.4992   17.8861   20.9021 H   0  0  0  0  0  0  0  0  0  0  0  0
   20.8929   17.5705   22.5385 C   0  0  0  0  0  0  0  0  0  0  0  0
   21.1358   17.9965   23.5208 H   0  0  0  0  0  0  0  0  0  0  0  0
   20.6127   16.5192   22.6848 H   0  0  0  0  0  0  0  0  0  0  0  0
   21.7993   17.5968   21.9194 H   0  0  0  0  0  0  0  0  0  0  0  0
  1  2  1  0  0  0  0
  1  3  2  0  0  0  0
  1  4  1  0  0  0  0
  4  5  1  0  0  0  0
  4  6  1  0  0  0  0
  4  7  1  0  0  0  0
  7  8  1  0  0  0  0
  7  9  1  0  0  0  0
  7 10  1  0  0  0  0
 10 11  1  0  0  0  0
 10 12  1  0  0  0  0
 10 13  1  0  0  0  0
M  END
> <VConfSearch Rank>
857

> <Conf_Id>
0

> <Delta U+W>
0.000

> <U+W>
-58.332

> <U>
8.390

> <W>
-66.722

> <W(PB)>
-68.455

> <W(SA)>
1.733

> <Valence>
6.333

> <Coulomb>
1.215

> <VdW>
0.842

> <VdW6>
-3.344

> <VdW12>
4.186

> <Bond>
0.091

> <Angle>
2.713

> <Pdih>
3.529

> <Idih>
0.000

> <Tether>
0.000

$$$$
VeraChem MOL file


 13 12  0  0  0  0  0  0  0  0999 V2000     
   19.3961   19.7232   19.9239 C   0  0  0  0  0  0  0  0  0  0  0  0
   20.2612   19.7439   19.0715 O   0  5  0  0  0  0  0  0  0  0  0  0
   18.4066   20.4269   19.8929 O   0  0  0  0  0  0  0  0  0  0  0  0
   19.5711   18.7762   21.1063 C   0  0  0  0  0  0  0  0  0  0  0  0
   20.1055   17.8855   20.7542 H   0  0  0  0  0  0  0  0  0  0  0  0
   18.5761   18.4487   21.4315 H   0  0  0  0  0  0  0  0  0  0  0  0
   20.3326   19.4213   22.2895 C   0  0  0  0  0  0  0  0  0  0  0  0
   21.3233   19.7543   21.9498 H   0  0  0  0  0  0  0  0  0  0  0  0
   19.7935   20.3175   22.6273 H   0  0  0  0  0  0  0  0  0  0  0  0
   20.4928   18.4394   23.4674 C   0  0  0  0  0  0  0  0  0  0  0  0
   21.0345   18.9144   24.2958 H   0  0  0  0  0  0  0  0  0  0  0  0
   19.5139   18.1151   23.8443 H   0  0  0  0  0  0  0  0  0  0  0  0
   21.0554   17.5476   23.1616 H   0  0  0  0  0  0  0  0  0  0  0  0
  1  2  1  0  0  0  0
  1  3  2  0  0  0  0
  1  4  1  0  0  0  0
  4  5  1  0  0  0  0
  4  6  1  0  0  0  0
  4  7  1  0  0  0  0
  7  8  1  0  0  0  0
  7  9  1  0  0  0  0
  7 10  1  0  0  0  0
 10 11  1  0  0  0  0
 10 12  1  0  0  0  0
 10 13  1  0  0  0  0
M  END
> <VConfSearch Rank>
858

> <Conf_Id>
1

> <Delta U+W>
-1.339

> <U+W>
-59.672

> <U>
7.389

> <W>
-67.061

> <W(PB)>
-68.767

> <W(SA)>
1.707

> <Valence>
5.822

> <Coulomb>
1.255

> <VdW>
0.312

> <VdW6>
-3.061

> <VdW12>
3.372

> <Bond>
0.059

> <Angle>
2.241

> <Pdih>
3.522

> <Idih>
0.000

> <Tether>
0.000

$$$$
VeraChem MOL file


 13 12  0  0  0  0  0  0  0  0999 V2000     
   20.8296   19.4288   20.4152 C   0  0  0  0  0  0  0  0  0  0  0  0
   21.8772   20.0428   20.4565 O   0  5  0  0  0  0  0  0  0  0  0  0
   20.5926   18.5635   19.5961 O   0  0  0  0  0  0  0  0  0  0  0  0
   19.7424   19.7904   21.4241 C   0  0  0  0  0  0  0  0  0  0  0  0
   18.7839   19.3971   21.0640 H   0  0  0  0  0  0  0  0  0  0  0  0
   19.6535   20.8833   21.4314 H   0  0  0  0  0  0  0  0  0  0  0  0
   20.0194   19.2861   22.8637 C   0  0  0  0  0  0  0  0  0  0  0  0
   21.0002   19.6517   23.1991 H   0  0  0  0  0  0  0  0  0  0  0  0
   19.2726   19.7155   23.5454 H   0  0  0  0  0  0  0  0  0  0  0  0
   19.9728   17.7478   22.9695 C   0  0  0  0  0  0  0  0  0  0  0  0
   20.7384   17.2850   22.3327 H   0  0  0  0  0  0  0  0  0  0  0  0
   20.1531   17.4255   24.0033 H   0  0  0  0  0  0  0  0  0  0  0  0
   18.9925   17.3626   22.6597 H   0  0  0  0  0  0  0  0  0  0  0  0
  1  2  1  0  0  0  0
  1  3  2  0  0  0  0
  1  4  1  0  0  0  0
  4  5  1  0  0  0  0
  4  6  1  0  0  0  0
  4  7  1  0  0  0  0
  7  8  1  0  0  0  0
  7  9  1  0  0  0  0
  7 10  1  0  0  0  0
 10 11  1  0  0  0  0
 10 12  1  0  0  0  0
 10 13  1  0  0  0  0
M  END
> <VConfSearch Rank>
859

> <Conf_Id>
4

> <Delta U+W>
0.281

> <U+W>
-58.051

> <U>
9.781

> <W>
-67.832

> <W(PB)>
-69.535

> <W(SA)>
1.703

> <Valence>
6.123

> <Coulomb>
3.449

> <VdW>
0.209

> <VdW6>
-3.762

> <VdW12>
3.972

> <Bond>
0.078

> <Angle>
2.428

> <Pdih>
3.616

> <Idih>
0.002

> <Tether>
0.000

$$$$
VeraChem MOL file


 13 12  0  0  0  0  0  0  0  0999 V2000     
   19.8426   20.1283   20.6592 C   0  0  0  0  0  0  0  0  0  0  0  0
   20.3347   19.6949   19.6365 O   0  5  0  0  0  0  0  0  0  0  0  0
   18.7932   20.7397   20.6905 O   0  0  0  0  0  0  0  0  0  0  0  0
   20.5983   19.9267   21.9703 C   0  0  0  0  0  0  0  0  0  0  0  0
   20.6271   20.8954   22.4834 H   0  0  0  0  0  0  0  0  0  0  0  0
   21.6369   19.6594   21.7398 H   0  0  0  0  0  0  0  0  0  0  0  0
   19.9693   18.8648   22.9084 C   0  0  0  0  0  0  0  0  0  0  0  0
   20.4823   18.8934   23.8794 H   0  0  0  0  0  0  0  0  0  0  0  0
   18.9174   19.1198   23.0995 H   0  0  0  0  0  0  0  0  0  0  0  0
   20.0627   17.4374   22.3309 C   0  0  0  0  0  0  0  0  0  0  0  0
   21.1083   17.1536   22.1531 H   0  0  0  0  0  0  0  0  0  0  0  0
   19.6269   16.7091   23.0272 H   0  0  0  0  0  0  0  0  0  0  0  0
   19.5213   17.3607   21.3787 H   0  0  0  0  0  0  0  0  0  0  0  0
  1  2  1  0  0  0  0
  1  3  2  0  0  0  0
  1  4  1  0  0  0  0
  4  5  1  0  0  0  0
  4  6  1  0  0  0  0
  4  7  1  0  0  0  0
  7  8  1  0  0  0  0
  7  9  1  0  0  0  0
  7 10  1  0  0  0  0
 10 11  1  0  0  0  0
 10 12  1  0  0  0  0
 10 13  1  0  0  0  0
M  END
> <VConfSearch Rank>
860

> <Conf_Id>
36

> <Delta U+W>
0.272

> <U+W>
-58.060

> <U>
9.781

> <W>
-67.841

> <W(PB)>
-69.537

> <W(SA)>
1.696

> <Valence>
6.123

> <Coulomb>
3.449

> <VdW>
0.209

> <VdW6>
-3.762

> <VdW12>
3.972

> <Bond>
0.078

> <Angle>
2.428

> <Pdih>
3.616

> <Idih>
0.002

> <Tether>
0.000

$$$$
VeraChem MOL file


 13 12  0  0  0  0  0  0  0  0999 V2000     
   18.7449   17.8939   23.1209 C   0  0  0  0  0  0  0  0  0  0  0  0
   19.5003   17.0029   23.4566 O   0  5  0  0  0  0  0  0  0  0  0  0
   17.6003   17.9755   23.5184 O   0  0  0  0  0  0  0  0  0  0  0  0
   19.2281   18.9770   22.1543 C   0  0  0  0  0  0  0  0  0  0  0  0
   19.0970   19.9442   22.6539 H   0  0  0  0  0  0  0  0  0  0  0  0
   18.5538   18.9691   21.2897 H   0  0  0  0  0  0  0  0  0  0  0  0
   20.6957   18.8319   21.6736 C   0  0  0  0  0  0  0  0  0  0  0  0
   21.3696   18.8370   22.5417 H   0  0  0  0  0  0  0  0  0  0  0  0
   20.8256   17.8607   21.1759 H   0  0  0  0  0  0  0  0  0  0  0  0
   21.0925   19.9648   20.7057 C   0  0  0  0  0  0  0  0  0  0  0  0
   21.0009   20.9457   21.1903 H   0  0  0  0  0  0  0  0  0  0  0  0
   22.1331   19.8453   20.3767 H   0  0  0  0  0  0  0  0  0  0  0  0
   20.4525   19.9616   19.8135 H   0  0  0  0  0  0  0  0  0  0  0  0
  1  2  1  0  0  0  0
  1  3  2  0  0  0  0
  1  4  1  0  0  0  0
  4  5  1  0  0  0  0
  4  6  1  0  0  0  0
  4  7  1  0  0  0  0
  7  8  1  0  0  0  0
  7  9  1  0  0  0  0
  7 10  1  0  0  0  0
 10 11  1  0  0  0  0
 10 12  1  0  0  0  0
 10 13  1  0  0  0  0
M  END
> <VConfSearch Rank>
861

> <Conf_Id>
0

> <Delta U+W>
0.000

> <U+W>
-58.332

> <U>
8.390

> <W>
-66.722

> <W(PB)>
-68.455

> <W(SA)>
1.733

> <Valence>
6.333

> <Coulomb>
1.215

> <VdW>
0.842

> <VdW6>
-3.344

> <VdW12>
4.186

> <Bond>
0.091

> <Angle>
2.713

> <Pdih>
3.529

> <Idih>
0.000

> <Tether>
0.000

$$$$
VeraChem MOL file


 13 12  0  0  0  0  0  0  0  0999 V2000     
   20.8452   20.2247   20.3078 C   0  0  0  0  0  0  0  0  0  0  0  0
   20.0674   20.8667   19.6307 O   0  5  0  0  0  0  0  0  0  0  0  0
   21.9481   19.8884   19.9258 O   0  0  0  0  0  0  0  0  0  0  0  0
   20.4060   19.8021   21.7056 C   0  0  0  0  0  0  0  0  0  0  0  0
   19.7434   20.5796   22.1050 H   0  0  0  0  0  0  0  0  0  0  0  0
   21.2943   19.7729   22.3483 H   0  0  0  0  0  0  0  0  0  0  0  0
   19.6894   18.4303   21.7248 C   0  0  0  0  0  0  0  0  0  0  0  0
   18.8074   18.4683   21.0702 H   0  0  0  0  0  0  0  0  0  0  0  0
   20.3585   17.6615   21.3138 H   0  0  0  0  0  0  0  0  0  0  0  0
   19.2584   18.0321   23.1506 C   0  0  0  0  0  0  0  0  0  0  0  0
   18.7526   17.0578   23.1439 H   0  0  0  0  0  0  0  0  0  0  0  0
   20.1276   17.9583   23.8175 H   0  0  0  0  0  0  0  0  0  0  0  0
   18.5645   18.7714   23.5720 H   0  0  0  0  0  0  0  0  0  0  0  0
  1  2  1  0  0  0  0
  1  3  2  0  0  0  0
  1  4  1  0  0  0  0
  4  5  1  0  0  0  0
  4  6  1  0  0  0  0
  4  7  1  0  0  0  0
  7  8  1  0  0  0  0
  7  9  1  0  0  0  0
  7 10  1  0  0  0  0
 10 11  1  0  0  0  0
 10 12  1  0  0  0  0
 10 13  1  0  0  0  0
M  END
> <VConfSearch Rank>
862

> <Conf_Id>
1

> <Delta U+W>
-1.339

> <U+W>
-59.672

> <U>
7.389

> <W>
-67.061

> <W(PB)>
-68.767

> <W(SA)>
1.707

> <Valence>
5.822

> <Coulomb>
1.255

> <VdW>
0.312

> <VdW6>
-3.061

> <VdW12>
3.372

> <Bond>
0.059

> <Angle>
2.241

> <Pdih>
3.522

> <Idih>
0.000

> <Tether>
0.000

$$$$
VeraChem MOL file


 13 12  0  0  0  0  0  0  0  0999 V2000     
   19.5016   20.6468   22.0454 C   0  0  0  0  0  0  0  0  0  0  0  0
   19.0159   21.0051   23.0998 O   0  5  0  0  0  0  0  0  0  0  0  0
   20.1993   21.3605   21.3527 O   0  0  0  0  0  0  0  0  0  0  0  0
   19.1878   19.2373   21.5498 C   0  0  0  0  0  0  0  0  0  0  0  0
   19.4167   19.1824   20.4784 H   0  0  0  0  0  0  0  0  0  0  0  0
   18.1060   19.0886   21.6504 H   0  0  0  0  0  0  0  0  0  0  0  0
   19.9357   18.1148   22.3138 C   0  0  0  0  0  0  0  0  0  0  0  0
   19.7325   18.2041   23.3902 H   0  0  0  0  0  0  0  0  0  0  0  0
   19.5407   17.1396   21.9980 H   0  0  0  0  0  0  0  0  0  0  0  0
   21.4582   18.1457   22.0667 C   0  0  0  0  0  0  0  0  0  0  0  0
   21.8950   19.0919   22.4125 H   0  0  0  0  0  0  0  0  0  0  0  0
   21.9542   17.3276   22.6051 H   0  0  0  0  0  0  0  0  0  0  0  0
   21.6846   18.0354   20.9980 H   0  0  0  0  0  0  0  0  0  0  0  0
  1  2  1  0  0  0  0
  1  3  2  0  0  0  0
  1  4  1  0  0  0  0
  4  5  1  0  0  0  0
  4  6  1  0  0  0  0
  4  7  1  0  0  0  0
  7  8  1  0  0  0  0
  7  9  1  0  0  0  0
  7 10  1  0  0  0  0
 10 11  1  0  0  0  0
 10 12  1  0  0  0  0
 10 13  1  0  0  0  0
M  END
> <VConfSearch Rank>
863

> <Conf_Id>
4

> <Delta U+W>
0.281

> <U+W>
-58.051

> <U>
9.781

> <W>
-67.832

> <W(PB)>
-69.535

> <W(SA)>
1.703

> <Valence>
6.123

> <Coulomb>
3.449

> <VdW>
0.209

> <VdW6>
-3.762

> <VdW12>
3.972

> <Bond>
0.078

> <Angle>
2.428

> <Pdih>
3.616

> <Idih>
0.002

> <Tether>
0.000

$$$$
VeraChem MOL file


 13 12  0  0  0  0  0  0  0  0999 V2000     
   19.1379   17.5982   22.6099 C   0  0  0  0  0  0  0  0  0  0  0  0
   19.6970   16.5507   22.3531 O   0  5  0  0  0  0  0  0  0  0  0  0
   18.5306   17.7974   23.6431 O   0  0  0  0  0  0  0  0  0  0  0  0
   19.1680   18.7119   21.5660 C   0  0  0  0  0  0  0  0  0  0  0  0
   18.1417   19.0804   21.4512 H   0  0  0  0  0  0  0  0  0  0  0  0
   19.4596   18.2807   20.6004 H   0  0  0  0  0  0  0  0  0  0  0  0
   20.1032   19.8946   21.9267 C   0  0  0  0  0  0  0  0  0  0  0  0
   19.9493   20.7082   21.2047 H   0  0  0  0  0  0  0  0  0  0  0  0
   19.8290   20.2924   22.9138 H   0  0  0  0  0  0  0  0  0  0  0  0
   21.5925   19.4922   21.9225 C   0  0  0  0  0  0  0  0  0  0  0  0
   21.8935   19.1121   20.9374 H   0  0  0  0  0  0  0  0  0  0  0  0
   22.2271   20.3553   22.1619 H   0  0  0  0  0  0  0  0  0  0  0  0
   21.7918   18.7092   22.6662 H   0  0  0  0  0  0  0  0  0  0  0  0
  1  2  1  0  0  0  0
  1  3  2  0  0  0  0
  1  4  1  0  0  0  0
  4  5  1  0  0  0  0
  4  6  1  0  0  0  0
  4  7  1  0  0  0  0
  7  8  1  0  0  0  0
  7  9  1  0  0  0  0
  7 10  1  0  0  0  0
 10 11  1  0  0  0  0
 10 12  1  0  0  0  0
 10 13  1  0  0  0  0
M  END
> <VConfSearch Rank>
864

> <Conf_Id>
36

> <Delta U+W>
0.272

> <U+W>
-58.060

> <U>
9.781

> <W>
-67.841

> <W(PB)>
-69.537

> <W(SA)>
1.696

> <Valence>
6.123

> <Coulomb>
3.449

> <VdW>
0.209

> <VdW6>
-3.762

> <VdW12>
3.972

> <Bond>
0.078

> <Angle>
2.428

> <Pdih>
3.616

> <Idih>
0.002

> <Tether>
0.000

$$$$
VeraChem MOL file


 13 12  0  0  0  0  0  0  0  0999 V2000     
   18.4166   19.1527   23.2155 C   0  0  0  0  0  0  0  0  0  0  0  0
   17.4681   19.0480   22.4627 O   0  5  0  0  0  0  0  0  0  0  0  0
   18.2959   19.2995   24.4150 O   0  0  0  0  0  0  0  0  0  0  0  0
   19.8401   19.1018   22.6572 C   0  0  0  0  0  0  0  0  0  0  0  0
   20.3627   18.2832   23.1664 H   0  0  0  0  0  0  0  0  0  0  0  0
   20.3405   20.0324   22.9502 H   0  0  0  0  0  0  0  0  0  0  0  0
   19.9451   18.9133   21.1212 C   0  0  0  0  0  0  0  0  0  0  0  0
   19.4405   17.9816   20.8294 H   0  0  0  0  0  0  0  0  0  0  0  0
   19.4183   19.7329   20.6129 H   0  0  0  0  0  0  0  0  0  0  0  0
   21.4132   18.8738   20.6513 C   0  0  0  0  0  0  0  0  0  0  0  0
   21.9543   18.0426   21.1222 H   0  0  0  0  0  0  0  0  0  0  0  0
   21.4673   18.7400   19.5630 H   0  0  0  0  0  0  0  0  0  0  0  0
   21.9319   19.8079   20.9041 H   0  0  0  0  0  0  0  0  0  0  0  0
  1  2  1  0  0  0  0
  1  3  2  0  0  0  0
  1  4  1  0  0  0  0
  4  5  1  0  0  0  0
  4  6  1  0  0  0  0
  4  7  1  0  0  0  0
  7  8  1  0  0  0  0
  7  9  1  0  0  0  0
  7 10  1  0  0  0  0
 10 11  1  0  0  0  0
 10 12  1  0  0  0  0
 10 13  1  0  0  0  0
M  END
> <VConfSearch Rank>
865

> <Conf_Id>
0

> <Delta U+W>
0.000

> <U+W>
-58.332

> <U>
8.390

> <W>
-66.722

> <W(PB)>
-68.455

> <W(SA)>
1.733

> <Valence>
6.333

> <Coulomb>
1.215

> <VdW>
0.842

> <VdW6>
-3.344

> <VdW12>
4.186

> <Bond>
0.091

> <Angle>
2.713

> <Pdih>
3.529

> <Idih>
0.000

> <Tether>
0.000

$$$$
VeraChem MOL file


 13 12  0  0  0  0  0  0  0  0999 V2000     
   21.6991   17.7999   21.8066 C   0  0  0  0  0  0  0  0  0  0  0  0
   22.7018   18.2631   22.3118 O   0  5  0  0  0  0  0  0  0  0  0  0
   21.7152   16.9301   20.9589 O   0  0  0  0  0  0  0  0  0  0  0  0
   20.3480   18.3535   22.2464 C   0  0  0  0  0  0  0  0  0  0  0  0
   20.4247   18.6427   23.3017 H   0  0  0  0  0  0  0  0  0  0  0  0
   19.6110   17.5434   22.1860 H   0  0  0  0  0  0  0  0  0  0  0  0
   19.8836   19.5605   21.3958 C   0  0  0  0  0  0  0  0  0  0  0  0
   20.6338   20.3614   21.4560 H   0  0  0  0  0  0  0  0  0  0  0  0
   19.8199   19.2619   20.3401 H   0  0  0  0  0  0  0  0  0  0  0  0
   18.5162   20.0963   21.8653 C   0  0  0  0  0  0  0  0  0  0  0  0
   18.2041   20.9508   21.2508 H   0  0  0  0  0  0  0  0  0  0  0  0
   17.7425   19.3213   21.7861 H   0  0  0  0  0  0  0  0  0  0  0  0
   18.5627   20.4293   22.9105 H   0  0  0  0  0  0  0  0  0  0  0  0
  1  2  1  0  0  0  0
  1  3  2  0  0  0  0
  1  4  1  0  0  0  0
  4  5  1  0  0  0  0
  4  6  1  0  0  0  0
  4  7  1  0  0  0  0
  7  8  1  0  0  0  0
  7  9  1  0  0  0  0
  7 10  1  0  0  0  0
 10 11  1  0  0  0  0
 10 12  1  0  0  0  0
 10 13  1  0  0  0  0
M  END
> <VConfSearch Rank>
866

> <Conf_Id>
1

> <Delta U+W>
-1.339

> <U+W>
-59.672

> <U>
7.389

> <W>
-67.061

> <W(PB)>
-68.767

> <W(SA)>
1.707

> <Valence>
5.822

> <Coulomb>
1.255

> <VdW>
0.312

> <VdW6>
-3.061

> <VdW12>
3.372

> <Bond>
0.059

> <Angle>
2.241

> <Pdih>
3.522

> <Idih>
0.000

> <Tether>
0.000

$$$$
VeraChem MOL file


 13 12  0  0  0  0  0  0  0  0999 V2000     
   20.7932   20.2540   23.0506 C   0  0  0  0  0  0  0  0  0  0  0  0
   19.9930   20.8328   23.7582 O   0  5  0  0  0  0  0  0  0  0  0  0
   21.9084   19.9417   23.4175 O   0  0  0  0  0  0  0  0  0  0  0  0
   20.3861   19.9356   21.6140 C   0  0  0  0  0  0  0  0  0  0  0  0
   21.2906   19.7196   21.0322 H   0  0  0  0  0  0  0  0  0  0  0  0
   19.9464   20.8459   21.1894 H   0  0  0  0  0  0  0  0  0  0  0  0
   19.3762   18.7665   21.4849 C   0  0  0  0  0  0  0  0  0  0  0  0
   18.4922   18.9741   22.1040 H   0  0  0  0  0  0  0  0  0  0  0  0
   19.0264   18.7064   20.4452 H   0  0  0  0  0  0  0  0  0  0  0  0
   19.9888   17.4098   21.8896 C   0  0  0  0  0  0  0  0  0  0  0  0
   20.3101   17.4193   22.9396 H   0  0  0  0  0  0  0  0  0  0  0  0
   19.2551   16.6023   21.7680 H   0  0  0  0  0  0  0  0  0  0  0  0
   20.8617   17.1721   21.2676 H   0  0  0  0  0  0  0  0  0  0  0  0
  1  2  1  0  0  0  0
  1  3  2  0  0  0  0
  1  4  1  0  0  0  0
  4  5  1  0  0  0  0
  4  6  1  0  0  0  0
  4  7  1  0  0  0  0
  7  8  1  0  0  0  0
  7  9  1  0  0  0  0
  7 10  1  0  0  0  0
 10 11  1  0  0  0  0
 10 12  1  0  0  0  0
 10 13  1  0  0  0  0
M  END
> <VConfSearch Rank>
867

> <Conf_Id>
4

> <Delta U+W>
0.281

> <U+W>
-58.051

> <U>
9.781

> <W>
-67.832

> <W(PB)>
-69.535

> <W(SA)>
1.703

> <Valence>
6.123

> <Coulomb>
3.449

> <VdW>
0.209

> <VdW6>
-3.762

> <VdW12>
3.972

> <Bond>
0.078

> <Angle>
2.428

> <Pdih>
3.616

> <Idih>
0.002

> <Tether>
0.000

$$$$
VeraChem MOL file


 13 12  0  0  0  0  0  0  0  0999 V2000     
   20.8412   17.8419   20.8057 C   0  0  0  0  0  0  0  0  0  0  0  0
   21.7100   17.1843   21.3429 O   0  5  0  0  0  0  0  0  0  0  0  0
   20.0849   17.3944   19.9668 O   0  0  0  0  0  0  0  0  0  0  0  0
   20.7140   19.3174   21.1763 C   0  0  0  0  0  0  0  0  0  0  0  0
   20.6516   19.8855   20.2405 H   0  0  0  0  0  0  0  0  0  0  0  0
   21.6364   19.6344   21.6784 H   0  0  0  0  0  0  0  0  0  0  0  0
   19.4844   19.6457   22.0616 C   0  0  0  0  0  0  0  0  0  0  0  0
   19.3871   20.7362   22.1523 H   0  0  0  0  0  0  0  0  0  0  0  0
   18.5700   19.2871   21.5685 H   0  0  0  0  0  0  0  0  0  0  0  0
   19.5914   19.0304   23.4722 C   0  0  0  0  0  0  0  0  0  0  0  0
   20.4879   19.3933   23.9918 H   0  0  0  0  0  0  0  0  0  0  0  0
   18.7160   19.2977   24.0783 H   0  0  0  0  0  0  0  0  0  0  0  0
   19.6459   17.9348   23.4218 H   0  0  0  0  0  0  0  0  0  0  0  0
  1  2  1  0  0  0  0
  1  3  2  0  0  0  0
  1  4  1  0  0  0  0
  4  5  1  0  0  0  0
  4  6  1  0  0  0  0
  4  7  1  0  0  0  0
  7  8  1  0  0  0  0
  7  9  1  0  0  0  0
  7 10  1  0  0  0  0
 10 11  1  0  0  0  0
 10 12  1  0  0  0  0
 10 13  1  0  0  0  0
M  END
> <VConfSearch Rank>
868

> <Conf_Id>
36

> <Delta U+W>
0.272

> <U+W>
-58.060

> <U>
9.781

> <W>
-67.841

> <W(PB)>
-69.537

> <W(SA)>
1.696

> <Valence>
6.123

> <Coulomb>
3.449

> <VdW>
0.209

> <VdW6>
-3.762

> <VdW12>
3.972

> <Bond>
0.078

> <Angle>
2.428

> <Pdih>
3.616

> <Idih>
0.002

> <Tether>
0.000

$$$$
VeraChem MOL file


 13 12  0  0  0  0  0  0  0  0999 V2000     
   19.7101   16.9092   22.0956 C   0  0  0  0  0  0  0  0  0  0  0  0
   18.9516   16.9286   23.0451 O   0  5  0  0  0  0  0  0  0  0  0  0
   20.0853   15.8809   21.5696 O   0  0  0  0  0  0  0  0  0  0  0  0
   20.2340   18.2236   21.5136 C   0  0  0  0  0  0  0  0  0  0  0  0
   19.9535   18.2476   20.4538 H   0  0  0  0  0  0  0  0  0  0  0  0
   21.3291   18.1866   21.5542 H   0  0  0  0  0  0  0  0  0  0  0  0
   19.7282   19.5101   22.2171 C   0  0  0  0  0  0  0  0  0  0  0  0
   18.6304   19.5438   22.1778 H   0  0  0  0  0  0  0  0  0  0  0  0
   20.0076   19.4827   23.2796 H   0  0  0  0  0  0  0  0  0  0  0  0
   20.3071   20.7814   21.5640 C   0  0  0  0  0  0  0  0  0  0  0  0
   20.0154   20.8481   20.5076 H   0  0  0  0  0  0  0  0  0  0  0  0
   19.9384   21.6805   22.0748 H   0  0  0  0  0  0  0  0  0  0  0  0
   21.4037   20.7865   21.6182 H   0  0  0  0  0  0  0  0  0  0  0  0
  1  2  1  0  0  0  0
  1  3  2  0  0  0  0
  1  4  1  0  0  0  0
  4  5  1  0  0  0  0
  4  6  1  0  0  0  0
  4  7  1  0  0  0  0
  7  8  1  0  0  0  0
  7  9  1  0  0  0  0
  7 10  1  0  0  0  0
 10 11  1  0  0  0  0
 10 12  1  0  0  0  0
 10 13  1  0  0  0  0
M  END
> <VConfSearch Rank>
869

> <Conf_Id>
0

> <Delta U+W>
0.000

> <U+W>
-58.332

> <U>
8.390

> <W>
-66.722

> <W(PB)>
-68.455

> <W(SA)>
1.733

> <Valence>
6.333

> <Coulomb>
1.215

> <VdW>
0.842

> <VdW6>
-3.344

> <VdW12>
4.186

> <Bond>
0.091

> <Angle>
2.713

> <Pdih>
3.529

> <Idih>
0.000

> <Tether>
0.000

$$$$
VeraChem MOL file


 13 12  0  0  0  0  0  0  0  0999 V2000     
   21.0671   18.0915   20.2828 C   0  0  0  0  0  0  0  0  0  0  0  0
   22.1353   18.5914   19.9923 O   0  5  0  0  0  0  0  0  0  0  0  0
   20.4141   17.4115   19.5169 O   0  0  0  0  0  0  0  0  0  0  0  0
   20.5067   18.3470   21.6778 C   0  0  0  0  0  0  0  0  0  0  0  0
   21.3501   18.4374   22.3732 H   0  0  0  0  0  0  0  0  0  0  0  0
   19.9307   17.4643   21.9812 H   0  0  0  0  0  0  0  0  0  0  0  0
   19.6190   19.6130   21.7498 C   0  0  0  0  0  0  0  0  0  0  0  0
   20.2033   20.4887   21.4344 H   0  0  0  0  0  0  0  0  0  0  0  0
   18.7835   19.5154   21.0425 H   0  0  0  0  0  0  0  0  0  0  0  0
   19.0687   19.8432   23.1716 C   0  0  0  0  0  0  0  0  0  0  0  0
   18.4424   20.7443   23.2026 H   0  0  0  0  0  0  0  0  0  0  0  0
   18.4556   18.9928   23.4979 H   0  0  0  0  0  0  0  0  0  0  0  0
   19.8862   19.9736   23.8929 H   0  0  0  0  0  0  0  0  0  0  0  0
  1  2  1  0  0  0  0
  1  3  2  0  0  0  0
  1  4  1  0  0  0  0
  4  5  1  0  0  0  0
  4  6  1  0  0  0  0
  4  7  1  0  0  0  0
  7  8  1  0  0  0  0
  7  9  1  0  0  0  0
  7 10  1  0  0  0  0
 10 11  1  0  0  0  0
 10 12  1  0  0  0  0
 10 13  1  0  0  0  0
M  END
> <VConfSearch Rank>
870

> <Conf_Id>
1

> <Delta U+W>
-1.339

> <U+W>
-59.672

> <U>
7.389

> <W>
-67.061

> <W(PB)>
-68.767

> <W(SA)>
1.707

> <Valence>
5.822

> <Coulomb>
1.255

> <VdW>
0.312

> <VdW6>
-3.061

> <VdW12>
3.372

> <Bond>
0.059

> <Angle>
2.241

> <Pdih>
3.522

> <Idih>
0.000

> <Tether>
0.000

$$$$
VeraChem MOL file


 13 12  0  0  0  0  0  0  0  0999 V2000     
   18.7234   19.9642   21.4946 C   0  0  0  0  0  0  0  0  0  0  0  0
   18.6488   20.2208   20.3094 O   0  5  0  0  0  0  0  0  0  0  0  0
   17.7603   19.6882   22.1818 O   0  0  0  0  0  0  0  0  0  0  0  0
   20.0957   20.0279   22.1605 C   0  0  0  0  0  0  0  0  0  0  0  0
   19.9566   20.0920   23.2467 H   0  0  0  0  0  0  0  0  0  0  0  0
   20.5686   20.9659   21.8459 H   0  0  0  0  0  0  0  0  0  0  0  0
   21.0266   18.8386   21.8107 C   0  0  0  0  0  0  0  0  0  0  0  0
   21.1259   18.7580   20.7191 H   0  0  0  0  0  0  0  0  0  0  0  0
   22.0319   19.0403   22.2050 H   0  0  0  0  0  0  0  0  0  0  0  0
   20.5180   17.5012   22.3876 C   0  0  0  0  0  0  0  0  0  0  0  0
   19.5312   17.2452   21.9795 H   0  0  0  0  0  0  0  0  0  0  0  0
   21.2087   16.6851   22.1390 H   0  0  0  0  0  0  0  0  0  0  0  0
   20.4325   17.5527   23.4810 H   0  0  0  0  0  0  0  0  0  0  0  0
  1  2  1  0  0  0  0
  1  3  2  0  0  0  0
  1  4  1  0  0  0  0
  4  5  1  0  0  0  0
  4  6  1  0  0  0  0
  4  7  1  0  0  0  0
  7  8  1  0  0  0  0
  7  9  1  0  0  0  0
  7 10  1  0  0  0  0
 10 11  1  0  0  0  0
 10 12  1  0  0  0  0
 10 13  1  0  0  0  0
M  END
> <VConfSearch Rank>
871

> <Conf_Id>
4

> <Delta U+W>
0.281

> <U+W>
-58.051

> <U>
9.781

> <W>
-67.832

> <W(PB)>
-69.535

> <W(SA)>
1.703

> <Valence>
6.123

> <Coulomb>
3.449

> <VdW>
0.209

> <VdW6>
-3.762

> <VdW12>
3.972

> <Bond>
0.078

> <Angle>
2.428

> <Pdih>
3.616

> <Idih>
0.002

> <Tether>
0.000

$$$$
VeraChem MOL file


 13 12  0  0  0  0  0  0  0  0999 V2000     
   20.0792   19.4001   23.7353 C   0  0  0  0  0  0  0  0  0  0  0  0
   19.9509   18.3931   24.4026 O   0  5  0  0  0  0  0  0  0  0  0  0
   20.7757   20.3388   24.0666 O   0  0  0  0  0  0  0  0  0  0  0  0
   19.2973   19.5093   22.4286 C   0  0  0  0  0  0  0  0  0  0  0  0
   18.8082   20.4907   22.4212 H   0  0  0  0  0  0  0  0  0  0  0  0
   18.4986   18.7574   22.4331 H   0  0  0  0  0  0  0  0  0  0  0  0
   20.1667   19.3570   21.1541 C   0  0  0  0  0  0  0  0  0  0  0  0
   19.5576   19.5977   20.2721 H   0  0  0  0  0  0  0  0  0  0  0  0
   20.9878   20.0871   21.1797 H   0  0  0  0  0  0  0  0  0  0  0  0
   20.7400   17.9334   20.9973 C   0  0  0  0  0  0  0  0  0  0  0  0
   19.9344   17.1892   20.9472 H   0  0  0  0  0  0  0  0  0  0  0  0
   21.3330   17.8544   20.0768 H   0  0  0  0  0  0  0  0  0  0  0  0
   21.3917   17.6750   21.8425 H   0  0  0  0  0  0  0  0  0  0  0  0
  1  2  1  0  0  0  0
  1  3  2  0  0  0  0
  1  4  1  0  0  0  0
  4  5  1  0  0  0  0
  4  6  1  0  0  0  0
  4  7  1  0  0  0  0
  7  8  1  0  0  0  0
  7  9  1  0  0  0  0
  7 10  1  0  0  0  0
 10 11  1  0  0  0  0
 10 12  1  0  0  0  0
 10 13  1  0  0  0  0
M  END
> <VConfSearch Rank>
872

> <Conf_Id>
36

> <Delta U+W>
0.272

> <U+W>
-58.060

> <U>
9.781

> <W>
-67.841

> <W(PB)>
-69.537

> <W(SA)>
1.696

> <Valence>
6.123

> <Coulomb>
3.449

> <VdW>
0.209

> <VdW6>
-3.762

> <VdW12>
3.972

> <Bond>
0.078

> <Angle>
2.428

> <Pdih>
3.616

> <Idih>
0.002

> <Tether>
0.000

$$$$
VeraChem MOL file


 13 12  0  0  0  0  0  0  0  0999 V2000     
   20.5363   16.9318   21.7624 C   0  0  0  0  0  0  0  0  0  0  0  0
   20.8923   16.7666   22.9127 O   0  5  0  0  0  0  0  0  0  0  0  0
   20.5384   16.0427   20.9352 O   0  0  0  0  0  0  0  0  0  0  0  0
   20.0584   18.3113   21.3047 C   0  0  0  0  0  0  0  0  0  0  0  0
   19.0412   18.1924   20.9130 H   0  0  0  0  0  0  0  0  0  0  0  0
   20.6922   18.6150   20.4630 H   0  0  0  0  0  0  0  0  0  0  0  0
   20.0730   19.4149   22.3946 C   0  0  0  0  0  0  0  0  0  0  0  0
   19.4396   19.1072   23.2383 H   0  0  0  0  0  0  0  0  0  0  0  0
   21.0926   19.5303   22.7879 H   0  0  0  0  0  0  0  0  0  0  0  0
   19.5767   20.7666   21.8429 C   0  0  0  0  0  0  0  0  0  0  0  0
   18.5467   20.6851   21.4714 H   0  0  0  0  0  0  0  0  0  0  0  0
   19.5941   21.5342   22.6277 H   0  0  0  0  0  0  0  0  0  0  0  0
   20.2130   21.1115   21.0173 H   0  0  0  0  0  0  0  0  0  0  0  0
  1  2  1  0  0  0  0
  1  3  2  0  0  0  0
  1  4  1  0  0  0  0
  4  5  1  0  0  0  0
  4  6  1  0  0  0  0
  4  7  1  0  0  0  0
  7  8  1  0  0  0  0
  7  9  1  0  0  0  0
  7 10  1  0  0  0  0
 10 11  1  0  0  0  0
 10 12  1  0  0  0  0
 10 13  1  0  0  0  0
M  END
> <VConfSearch Rank>
873

> <Conf_Id>
0

> <Delta U+W>
0.000

> <U+W>
-58.332

> <U>
8.390

> <W>
-66.722

> <W(PB)>
-68.455

> <W(SA)>
1.733

> <Valence>
6.333

> <Coulomb>
1.215

> <VdW>
0.842

> <VdW6>
-3.344

> <VdW12>
4.186

> <Bond>
0.091

> <Angle>
2.713

> <Pdih>
3.529

> <Idih>
0.000

> <Tether>
0.000

$$$$
VeraChem MOL file


 13 12  0  0  0  0  0  0  0  0999 V2000     
   18.2425   19.4941   22.9283 C   0  0  0  0  0  0  0  0  0  0  0  0
   17.9158   18.6837   23.7720 O   0  5  0  0  0  0  0  0  0  0  0  0
   17.4645   20.2619   22.3986 O   0  0  0  0  0  0  0  0  0  0  0  0
   19.7046   19.5370   22.4971 C   0  0  0  0  0  0  0  0  0  0  0  0
   20.3236   19.2702   23.3624 H   0  0  0  0  0  0  0  0  0  0  0  0
   19.9514   20.5717   22.2297 H   0  0  0  0  0  0  0  0  0  0  0  0
   20.0125   18.5922   21.3103 C   0  0  0  0  0  0  0  0  0  0  0  0
   19.7522   17.5607   21.5860 H   0  0  0  0  0  0  0  0  0  0  0  0
   19.3801   18.8625   20.4531 H   0  0  0  0  0  0  0  0  0  0  0  0
   21.4970   18.6587   20.8991 C   0  0  0  0  0  0  0  0  0  0  0  0
   21.6957   17.9828   20.0571 H   0  0  0  0  0  0  0  0  0  0  0  0
   21.7739   19.6753   20.5903 H   0  0  0  0  0  0  0  0  0  0  0  0
   22.1489   18.3635   21.7319 H   0  0  0  0  0  0  0  0  0  0  0  0
  1  2  1  0  0  0  0
  1  3  2  0  0  0  0
  1  4  1  0  0  0  0
  4  5  1  0  0  0  0
  4  6  1  0  0  0  0
  4  7  1  0  0  0  0
  7  8  1  0  0  0  0
  7  9  1  0  0  0  0
  7 10  1  0  0  0  0
 10 11  1  0  0  0  0
 10 12  1  0  0  0  0
 10 13  1  0  0  0  0
M  END
> <VConfSearch Rank>
874

> <Conf_Id>
1

> <Delta U+W>
-1.339

> <U+W>
-59.672

> <U>
7.389

> <W>
-67.061

> <W(PB)>
-68.767

> <W(SA)>
1.707

> <Valence>
5.822

> <Coulomb>
1.255

> <VdW>
0.312

> <VdW6>
-3.061

> <VdW12>
3.372

> <Bond>
0.059

> <Angle>
2.241

> <Pdih>
3.522

> <Idih>
0.000

> <Tether>
0.000

$$$$
VeraChem MOL file


 13 12  0  0  0  0  0  0  0  0999 V2000     
   21.2425   19.9707   21.0191 C   0  0  0  0  0  0  0  0  0  0  0  0
   21.1508   19.8503   19.8136 O   0  5  0  0  0  0  0  0  0  0  0  0
   21.4245   21.0362   21.5736 O   0  0  0  0  0  0  0  0  0  0  0  0
   21.1602   18.7107   21.8772 C   0  0  0  0  0  0  0  0  0  0  0  0
   21.5717   18.9337   22.8693 H   0  0  0  0  0  0  0  0  0  0  0  0
   21.8192   17.9616   21.4222 H   0  0  0  0  0  0  0  0  0  0  0  0
   19.7305   18.1264   22.0111 C   0  0  0  0  0  0  0  0  0  0  0  0
   19.3121   17.9454   21.0111 H   0  0  0  0  0  0  0  0  0  0  0  0
   19.7863   17.1499   22.5113 H   0  0  0  0  0  0  0  0  0  0  0  0
   18.7881   19.0493   22.8110 C   0  0  0  0  0  0  0  0  0  0  0  0
   18.6736   20.0222   22.3148 H   0  0  0  0  0  0  0  0  0  0  0  0
   17.7917   18.5980   22.9040 H   0  0  0  0  0  0  0  0  0  0  0  0
   19.1769   19.2255   23.8226 H   0  0  0  0  0  0  0  0  0  0  0  0
  1  2  1  0  0  0  0
  1  3  2  0  0  0  0
  1  4  1  0  0  0  0
  4  5  1  0  0  0  0
  4  6  1  0  0  0  0
  4  7  1  0  0  0  0
  7  8  1  0  0  0  0
  7  9  1  0  0  0  0
  7 10  1  0  0  0  0
 10 11  1  0  0  0  0
 10 12  1  0  0  0  0
 10 13  1  0  0  0  0
M  END
> <VConfSearch Rank>
875

> <Conf_Id>
4

> <Delta U+W>
0.281

> <U+W>
-58.051

> <U>
9.781

> <W>
-67.832

> <W(PB)>
-69.535

> <W(SA)>
1.703

> <Valence>
6.123

> <Coulomb>
3.449

> <VdW>
0.209

> <VdW6>
-3.762

> <VdW12>
3.972

> <Bond>
0.078

> <Angle>
2.428

> <Pdih>
3.616

> <Idih>
0.002

> <Tether>
0.000

$$$$
VeraChem MOL file


 13 12  0  0  0  0  0  0  0  0999 V2000     
   19.8945   17.2076   22.2467 C   0  0  0  0  0  0  0  0  0  0  0  0
   20.8842   16.7431   22.7764 O   0  5  0  0  0  0  0  0  0  0  0  0
   18.7641   16.8443   22.5044 O   0  0  0  0  0  0  0  0  0  0  0  0
   20.0801   18.2788   21.1749 C   0  0  0  0  0  0  0  0  0  0  0  0
   19.4652   17.9902   20.3141 H   0  0  0  0  0  0  0  0  0  0  0  0
   21.1240   18.2620   20.8383 H   0  0  0  0  0  0  0  0  0  0  0  0
   19.6893   19.7079   21.6316 C   0  0  0  0  0  0  0  0  0  0  0  0
   19.7090   20.3810   20.7636 H   0  0  0  0  0  0  0  0  0  0  0  0
   18.6557   19.7047   22.0053 H   0  0  0  0  0  0  0  0  0  0  0  0
   20.6347   20.2595   22.7187 C   0  0  0  0  0  0  0  0  0  0  0  0
   21.6711   20.2921   22.3577 H   0  0  0  0  0  0  0  0  0  0  0  0
   20.3425   21.2782   23.0048 H   0  0  0  0  0  0  0  0  0  0  0  0
   20.6067   19.6337   23.6206 H   0  0  0  0  0  0  0  0  0  0  0  0
  1  2  1  0  0  0  0
  1  3  2  0  0  0  0
  1  4  1  0  0  0  0
  4  5  1  0  0  0  0
  4  6  1  0  0  0  0
  4  7  1  0  0  0  0
  7  8  1  0  0  0  0
  7  9  1  0  0  0  0
  7 10  1  0  0  0  0
 10 11  1  0  0  0  0
 10 12  1  0  0  0  0
 10 13  1  0  0  0  0
M  END
> <VConfSearch Rank>
876

> <Conf_Id>
36

> <Delta U+W>
0.272

> <U+W>
-58.060

> <U>
9.781

> <W>
-67.841

> <W(PB)>
-69.537

> <W(SA)>
1.696

> <Valence>
6.123

> <Coulomb>
3.449

> <VdW>
0.209

> <VdW6>
-3.762

> <VdW12>
3.972

> <Bond>
0.078

> <Angle>
2.428

> <Pdih>
3.616

> <Idih>
0.002

> <Tether>
0.000

$$$$
VeraChem MOL file


 13 12  0  0  0  0  0  0  0  0999 V2000     
   19.2617   20.9835   21.6277 C   0  0  0  0  0  0  0  0  0  0  0  0
   19.4586   21.1744   20.4436 O   0  5  0  0  0  0  0  0  0  0  0  0
   18.7558   21.8130   22.3562 O   0  0  0  0  0  0  0  0  0  0  0  0
   19.6583   19.6475   22.2590 C   0  0  0  0  0  0  0  0  0  0  0  0
   18.7559   19.2171   22.7094 H   0  0  0  0  0  0  0  0  0  0  0  0
   20.3525   19.8659   23.0792 H   0  0  0  0  0  0  0  0  0  0  0  0
   20.3002   18.6196   21.2909 C   0  0  0  0  0  0  0  0  0  0  0  0
   19.6041   18.4043   20.4682 H   0  0  0  0  0  0  0  0  0  0  0  0
   21.2026   19.0540   20.8384 H   0  0  0  0  0  0  0  0  0  0  0  0
   20.6660   17.3076   22.0139 C   0  0  0  0  0  0  0  0  0  0  0  0
   19.7744   16.8371   22.4490 H   0  0  0  0  0  0  0  0  0  0  0  0
   21.1184   16.5935   21.3135 H   0  0  0  0  0  0  0  0  0  0  0  0
   21.3858   17.4920   22.8222 H   0  0  0  0  0  0  0  0  0  0  0  0
  1  2  1  0  0  0  0
  1  3  2  0  0  0  0
  1  4  1  0  0  0  0
  4  5  1  0  0  0  0
  4  6  1  0  0  0  0
  4  7  1  0  0  0  0
  7  8  1  0  0  0  0
  7  9  1  0  0  0  0
  7 10  1  0  0  0  0
 10 11  1  0  0  0  0
 10 12  1  0  0  0  0
 10 13  1  0  0  0  0
M  END
> <VConfSearch Rank>
877

> <Conf_Id>
0

> <Delta U+W>
0.000

> <U+W>
-58.332

> <U>
8.390

> <W>
-66.722

> <W(PB)>
-68.455

> <W(SA)>
1.733

> <Valence>
6.333

> <Coulomb>
1.215

> <VdW>
0.842

> <VdW6>
-3.344

> <VdW12>
4.186

> <Bond>
0.091

> <Angle>
2.713

> <Pdih>
3.529

> <Idih>
0.000

> <Tether>
0.000

$$$$
VeraChem MOL file


 13 12  0  0  0  0  0  0  0  0999 V2000     
   18.5364   19.3622   23.3303 C   0  0  0  0  0  0  0  0  0  0  0  0
   17.3792   19.3575   22.9614 O   0  5  0  0  0  0  0  0  0  0  0  0
   18.9195   19.9343   24.3310 O   0  0  0  0  0  0  0  0  0  0  0  0
   19.5671   18.6259   22.4812 C   0  0  0  0  0  0  0  0  0  0  0  0
   19.0746   17.7610   22.0202 H   0  0  0  0  0  0  0  0  0  0  0  0
   20.3448   18.2367   23.1496 H   0  0  0  0  0  0  0  0  0  0  0  0
   20.2020   19.5215   21.3900 C   0  0  0  0  0  0  0  0  0  0  0  0
   19.4131   19.9134   20.7329 H   0  0  0  0  0  0  0  0  0  0  0  0
   20.6836   20.3891   21.8625 H   0  0  0  0  0  0  0  0  0  0  0  0
   21.2383   18.7485   20.5499 C   0  0  0  0  0  0  0  0  0  0  0  0
   21.6770   19.3995   19.7824 H   0  0  0  0  0  0  0  0  0  0  0  0
   22.0537   18.3719   21.1814 H   0  0  0  0  0  0  0  0  0  0  0  0
   20.7734   17.8926   20.0431 H   0  0  0  0  0  0  0  0  0  0  0  0
  1  2  1  0  0  0  0
  1  3  2  0  0  0  0
  1  4  1  0  0  0  0
  4  5  1  0  0  0  0
  4  6  1  0  0  0  0
  4  7  1  0  0  0  0
  7  8  1  0  0  0  0
  7  9  1  0  0  0  0
  7 10  1  0  0  0  0
 10 11  1  0  0  0  0
 10 12  1  0  0  0  0
 10 13  1  0  0  0  0
M  END
> <VConfSearch Rank>
878

> <Conf_Id>
1

> <Delta U+W>
-1.339

> <U+W>
-59.672

> <U>
7.389

> <W>
-67.061

> <W(PB)>
-68.767

> <W(SA)>
1.707

> <Valence>
5.822

> <Coulomb>
1.255

> <VdW>
0.312

> <VdW6>
-3.061

> <VdW12>
3.372

> <Bond>
0.059

> <Angle>
2.241

> <Pdih>
3.522

> <Idih>
0.000

> <Tether>
0.000

$$$$
VeraChem MOL file


 13 12  0  0  0  0  0  0  0  0999 V2000     
   19.3556   19.9069   23.3147 C   0  0  0  0  0  0  0  0  0  0  0  0
   18.2864   19.4895   23.7129 O   0  5  0  0  0  0  0  0  0  0  0  0
   20.2130   20.3585   24.0474 O   0  0  0  0  0  0  0  0  0  0  0  0
   19.6186   19.8952   21.8109 C   0  0  0  0  0  0  0  0  0  0  0  0
   20.4512   20.5757   21.5944 H   0  0  0  0  0  0  0  0  0  0  0  0
   18.7317   20.3140   21.3205 H   0  0  0  0  0  0  0  0  0  0  0  0
   19.9135   18.4888   21.2291 C   0  0  0  0  0  0  0  0  0  0  0  0
   19.0929   17.8047   21.4871 H   0  0  0  0  0  0  0  0  0  0  0  0
   19.9396   18.5511   20.1326 H   0  0  0  0  0  0  0  0  0  0  0  0
   21.2520   17.9103   21.7330 C   0  0  0  0  0  0  0  0  0  0  0  0
   21.2449   17.7924   22.8247 H   0  0  0  0  0  0  0  0  0  0  0  0
   21.4394   16.9246   21.2877 H   0  0  0  0  0  0  0  0  0  0  0  0
   22.0892   18.5684   21.4660 H   0  0  0  0  0  0  0  0  0  0  0  0
  1  2  1  0  0  0  0
  1  3  2  0  0  0  0
  1  4  1  0  0  0  0
  4  5  1  0  0  0  0
  4  6  1  0  0  0  0
  4  7  1  0  0  0  0
  7  8  1  0  0  0  0
  7  9  1  0  0  0  0
  7 10  1  0  0  0  0
 10 11  1  0  0  0  0
 10 12  1  0  0  0  0
 10 13  1  0  0  0  0
M  END
> <VConfSearch Rank>
879

> <Conf_Id>
4

> <Delta U+W>
0.281

> <U+W>
-58.051

> <U>
9.781

> <W>
-67.832

> <W(PB)>
-69.535

> <W(SA)>
1.703

> <Valence>
6.123

> <Coulomb>
3.449

> <VdW>
0.209

> <VdW6>
-3.762

> <VdW12>
3.972

> <Bond>
0.078

> <Angle>
2.428

> <Pdih>
3.616

> <Idih>
0.002

> <Tether>
0.000

$$$$
VeraChem MOL file


 13 12  0  0  0  0  0  0  0  0999 V2000     
   18.5642   19.2842   22.8331 C   0  0  0  0  0  0  0  0  0  0  0  0
   17.9618   18.2398   22.9823 O   0  5  0  0  0  0  0  0  0  0  0  0
   18.5755   20.1746   23.6597 O   0  0  0  0  0  0  0  0  0  0  0  0
   19.3181   19.5067   21.5244 C   0  0  0  0  0  0  0  0  0  0  0  0
   19.0451   20.5023   21.1549 H   0  0  0  0  0  0  0  0  0  0  0  0
   18.9563   18.7836   20.7831 H   0  0  0  0  0  0  0  0  0  0  0  0
   20.8598   19.4104   21.6558 C   0  0  0  0  0  0  0  0  0  0  0  0
   21.3221   19.7299   20.7118 H   0  0  0  0  0  0  0  0  0  0  0  0
   21.2072   20.1090   22.4298 H   0  0  0  0  0  0  0  0  0  0  0  0
   21.3356   17.9819   21.9917 C   0  0  0  0  0  0  0  0  0  0  0  0
   21.0177   17.2703   21.2184 H   0  0  0  0  0  0  0  0  0  0  0  0
   22.4307   17.9445   22.0581 H   0  0  0  0  0  0  0  0  0  0  0  0
   20.9269   17.6458   22.9539 H   0  0  0  0  0  0  0  0  0  0  0  0
  1  2  1  0  0  0  0
  1  3  2  0  0  0  0
  1  4  1  0  0  0  0
  4  5  1  0  0  0  0
  4  6  1  0  0  0  0
  4  7  1  0  0  0  0
  7  8  1  0  0  0  0
  7  9  1  0  0  0  0
  7 10  1  0  0  0  0
 10 11  1  0  0  0  0
 10 12  1  0  0  0  0
 10 13  1  0  0  0  0
M  END
> <VConfSearch Rank>
880

> <Conf_Id>
36

> <Delta U+W>
0.272

> <U+W>
-58.060

> <U>
9.781

> <W>
-67.841

> <W(PB)>
-69.537

> <W(SA)>
1.696

> <Valence>
6.123

> <Coulomb>
3.449

> <VdW>
0.209

> <VdW6>
-3.762

> <VdW12>
3.972

> <Bond>
0.078

> <Angle>
2.428

> <Pdih>
3.616

> <Idih>
0.002

> <Tether>
0.000

$$$$
VeraChem MOL file


 13 12  0  0  0  0  0  0  0  0999 V2000     
   18.3201   18.4205   20.6754 C   0  0  0  0  0  0  0  0  0  0  0  0
   18.1126   19.4497   20.0630 O   0  5  0  0  0  0  0  0  0  0  0  0
   17.6378   17.4243   20.5449 O   0  0  0  0  0  0  0  0  0  0  0  0
   19.4859   18.3449   21.6632 C   0  0  0  0  0  0  0  0  0  0  0  0
   20.1302   17.5159   21.3469 H   0  0  0  0  0  0  0  0  0  0  0  0
   19.0702   18.0724   22.6405 H   0  0  0  0  0  0  0  0  0  0  0  0
   20.3288   19.6402   21.7966 C   0  0  0  0  0  0  0  0  0  0  0  0
   20.7421   19.9131   20.8155 H   0  0  0  0  0  0  0  0  0  0  0  0
   19.6807   20.4703   22.1107 H   0  0  0  0  0  0  0  0  0  0  0  0
   21.4776   19.4701   22.8111 C   0  0  0  0  0  0  0  0  0  0  0  0
   22.1580   18.6654   22.5029 H   0  0  0  0  0  0  0  0  0  0  0  0
   22.0621   20.3958   22.8919 H   0  0  0  0  0  0  0  0  0  0  0  0
   21.0882   19.2270   23.8085 H   0  0  0  0  0  0  0  0  0  0  0  0
  1  2  1  0  0  0  0
  1  3  2  0  0  0  0
  1  4  1  0  0  0  0
  4  5  1  0  0  0  0
  4  6  1  0  0  0  0
  4  7  1  0  0  0  0
  7  8  1  0  0  0  0
  7  9  1  0  0  0  0
  7 10  1  0  0  0  0
 10 11  1  0  0  0  0
 10 12  1  0  0  0  0
 10 13  1  0  0  0  0
M  END
> <VConfSearch Rank>
881

> <Conf_Id>
0

> <Delta U+W>
0.000

> <U+W>
-58.332

> <U>
8.390

> <W>
-66.722

> <W(PB)>
-68.455

> <W(SA)>
1.733

> <Valence>
6.333

> <Coulomb>
1.215

> <VdW>
0.842

> <VdW6>
-3.344

> <VdW12>
4.186

> <Bond>
0.091

> <Angle>
2.713

> <Pdih>
3.529

> <Idih>
0.000

> <Tether>
0.000

$$$$
VeraChem MOL file


 13 12  0  0  0  0  0  0  0  0999 V2000     
   19.5827   17.9370   20.0772 C   0  0  0  0  0  0  0  0  0  0  0  0
   19.5002   16.7326   20.2107 O   0  5  0  0  0  0  0  0  0  0  0  0
   19.8703   18.4778   19.0283 O   0  0  0  0  0  0  0  0  0  0  0  0
   19.3299   18.8169   21.2968 C   0  0  0  0  0  0  0  0  0  0  0  0
   18.5822   18.3202   21.9271 H   0  0  0  0  0  0  0  0  0  0  0  0
   18.8874   19.7594   20.9520 H   0  0  0  0  0  0  0  0  0  0  0  0
   20.6133   19.0989   22.1148 C   0  0  0  0  0  0  0  0  0  0  0  0
   21.0530   18.1478   22.4463 H   0  0  0  0  0  0  0  0  0  0  0  0
   21.3582   19.5874   21.4711 H   0  0  0  0  0  0  0  0  0  0  0  0
   20.3244   19.9898   23.3396 C   0  0  0  0  0  0  0  0  0  0  0  0
   21.2455   20.1785   23.9064 H   0  0  0  0  0  0  0  0  0  0  0  0
   19.9114   20.9593   23.0314 H   0  0  0  0  0  0  0  0  0  0  0  0
   19.6039   19.5087   24.0141 H   0  0  0  0  0  0  0  0  0  0  0  0
  1  2  1  0  0  0  0
  1  3  2  0  0  0  0
  1  4  1  0  0  0  0
  4  5  1  0  0  0  0
  4  6  1  0  0  0  0
  4  7  1  0  0  0  0
  7  8  1  0  0  0  0
  7  9  1  0  0  0  0
  7 10  1  0  0  0  0
 10 11  1  0  0  0  0
 10 12  1  0  0  0  0
 10 13  1  0  0  0  0
M  END
> <VConfSearch Rank>
882

> <Conf_Id>
1

> <Delta U+W>
-1.339

> <U+W>
-59.672

> <U>
7.389

> <W>
-67.061

> <W(PB)>
-68.767

> <W(SA)>
1.707

> <Valence>
5.822

> <Coulomb>
1.255

> <VdW>
0.312

> <VdW6>
-3.061

> <VdW12>
3.372

> <Bond>
0.059

> <Angle>
2.241

> <Pdih>
3.522

> <Idih>
0.000

> <Tether>
0.000

$$$$
VeraChem MOL file


 13 12  0  0  0  0  0  0  0  0999 V2000     
   20.3544   18.7309   23.7583 C   0  0  0  0  0  0  0  0  0  0  0  0
   20.9878   17.7473   24.0861 O   0  5  0  0  0  0  0  0  0  0  0  0
   20.4650   19.8109   24.3035 O   0  0  0  0  0  0  0  0  0  0  0  0
   19.3412   18.5903   22.6250 C   0  0  0  0  0  0  0  0  0  0  0  0
   18.6475   19.4391   22.6665 H   0  0  0  0  0  0  0  0  0  0  0  0
   18.7503   17.6885   22.8247 H   0  0  0  0  0  0  0  0  0  0  0  0
   19.9766   18.4886   21.2146 C   0  0  0  0  0  0  0  0  0  0  0  0
   20.7000   17.6614   21.1959 H   0  0  0  0  0  0  0  0  0  0  0  0
   19.1942   18.2402   20.4845 H   0  0  0  0  0  0  0  0  0  0  0  0
   20.6704   19.7974   20.7839 C   0  0  0  0  0  0  0  0  0  0  0  0
   21.4898   20.0536   21.4686 H   0  0  0  0  0  0  0  0  0  0  0  0
   21.0916   19.6981   19.7750 H   0  0  0  0  0  0  0  0  0  0  0  0
   19.9593   20.6338   20.7742 H   0  0  0  0  0  0  0  0  0  0  0  0
  1  2  1  0  0  0  0
  1  3  2  0  0  0  0
  1  4  1  0  0  0  0
  4  5  1  0  0  0  0
  4  6  1  0  0  0  0
  4  7  1  0  0  0  0
  7  8  1  0  0  0  0
  7  9  1  0  0  0  0
  7 10  1  0  0  0  0
 10 11  1  0  0  0  0
 10 12  1  0  0  0  0
 10 13  1  0  0  0  0
M  END
> <VConfSearch Rank>
883

> <Conf_Id>
4

> <Delta U+W>
0.281

> <U+W>
-58.051

> <U>
9.781

> <W>
-67.832

> <W(PB)>
-69.535

> <W(SA)>
1.703

> <Valence>
6.123

> <Coulomb>
3.449

> <VdW>
0.209

> <VdW6>
-3.762

> <VdW12>
3.972

> <Bond>
0.078

> <Angle>
2.428

> <Pdih>
3.616

> <Idih>
0.002

> <Tether>
0.000

$$$$
VeraChem MOL file


 13 12  0  0  0  0  0  0  0  0999 V2000     
   19.4952   19.9715   23.3446 C   0  0  0  0  0  0  0  0  0  0  0  0
   19.7629   19.4413   24.4044 O   0  5  0  0  0  0  0  0  0  0  0  0
   19.5234   21.1737   23.1714 O   0  0  0  0  0  0  0  0  0  0  0  0
   19.0658   19.0855   22.1779 C   0  0  0  0  0  0  0  0  0  0  0  0
   18.1575   19.5259   21.7498 H   0  0  0  0  0  0  0  0  0  0  0  0
   18.7857   18.0999   22.5696 H   0  0  0  0  0  0  0  0  0  0  0  0
   20.1377   18.9339   21.0682 C   0  0  0  0  0  0  0  0  0  0  0  0
   19.6947   18.4124   20.2087 H   0  0  0  0  0  0  0  0  0  0  0  0
   20.4413   19.9283   20.7119 H   0  0  0  0  0  0  0  0  0  0  0  0
   21.3777   18.1514   21.5479 C   0  0  0  0  0  0  0  0  0  0  0  0
   21.0994   17.1453   21.8880 H   0  0  0  0  0  0  0  0  0  0  0  0
   22.1068   18.0453   20.7342 H   0  0  0  0  0  0  0  0  0  0  0  0
   21.8729   18.6686   22.3805 H   0  0  0  0  0  0  0  0  0  0  0  0
  1  2  1  0  0  0  0
  1  3  2  0  0  0  0
  1  4  1  0  0  0  0
  4  5  1  0  0  0  0
  4  6  1  0  0  0  0
  4  7  1  0  0  0  0
  7  8  1  0  0  0  0
  7  9  1  0  0  0  0
  7 10  1  0  0  0  0
 10 11  1  0  0  0  0
 10 12  1  0  0  0  0
 10 13  1  0  0  0  0
M  END
> <VConfSearch Rank>
884

> <Conf_Id>
36

> <Delta U+W>
0.272

> <U+W>
-58.060

> <U>
9.781

> <W>
-67.841

> <W(PB)>
-69.537

> <W(SA)>
1.696

> <Valence>
6.123

> <Coulomb>
3.449

> <VdW>
0.209

> <VdW6>
-3.762

> <VdW12>
3.972

> <Bond>
0.078

> <Angle>
2.428

> <Pdih>
3.616

> <Idih>
0.002

> <Tether>
0.000

$$$$
VeraChem MOL file


 13 12  0  0  0  0  0  0  0  0999 V2000     
   19.7040   16.9242   22.1871 C   0  0  0  0  0  0  0  0  0  0  0  0
   20.8041   16.6071   22.5954 O   0  5  0  0  0  0  0  0  0  0  0  0
   18.7857   16.1367   22.0812 O   0  0  0  0  0  0  0  0  0  0  0  0
   19.4325   18.3737   21.7798 C   0  0  0  0  0  0  0  0  0  0  0  0
   18.5904   18.7317   22.3841 H   0  0  0  0  0  0  0  0  0  0  0  0
   19.0963   18.3634   20.7362 H   0  0  0  0  0  0  0  0  0  0  0  0
   20.6340   19.3429   21.9321 C   0  0  0  0  0  0  0  0  0  0  0  0
   20.9712   19.3496   22.9780 H   0  0  0  0  0  0  0  0  0  0  0  0
   21.4778   18.9808   21.3282 H   0  0  0  0  0  0  0  0  0  0  0  0
   20.2675   20.7768   21.4991 C   0  0  0  0  0  0  0  0  0  0  0  0
   19.4456   21.1736   22.1095 H   0  0  0  0  0  0  0  0  0  0  0  0
   21.1291   21.4473   21.6137 H   0  0  0  0  0  0  0  0  0  0  0  0
   19.9562   20.8019   20.4465 H   0  0  0  0  0  0  0  0  0  0  0  0
  1  2  1  0  0  0  0
  1  3  2  0  0  0  0
  1  4  1  0  0  0  0
  4  5  1  0  0  0  0
  4  6  1  0  0  0  0
  4  7  1  0  0  0  0
  7  8  1  0  0  0  0
  7  9  1  0  0  0  0
  7 10  1  0  0  0  0
 10 11  1  0  0  0  0
 10 12  1  0  0  0  0
 10 13  1  0  0  0  0
M  END
> <VConfSearch Rank>
885

> <Conf_Id>
0

> <Delta U+W>
0.000

> <U+W>
-58.332

> <U>
8.390

> <W>
-66.722

> <W(PB)>
-68.455

> <W(SA)>
1.733

> <Valence>
6.333

> <Coulomb>
1.215

> <VdW>
0.842

> <VdW6>
-3.344

> <VdW12>
4.186

> <Bond>
0.091

> <Angle>
2.713

> <Pdih>
3.529

> <Idih>
0.000

> <Tether>
0.000

$$$$
VeraChem MOL file


 13 12  0  0  0  0  0  0  0  0999 V2000     
   20.3591   17.4909   23.2195 C   0  0  0  0  0  0  0  0  0  0  0  0
   19.7270   17.5403   24.2556 O   0  5  0  0  0  0  0  0  0  0  0  0
   21.4259   16.9203   23.1109 O   0  0  0  0  0  0  0  0  0  0  0  0
   19.7921   18.1995   21.9940 C   0  0  0  0  0  0  0  0  0  0  0  0
   18.6976   18.1496   22.0468 H   0  0  0  0  0  0  0  0  0  0  0  0
   20.0986   17.6383   21.1029 H   0  0  0  0  0  0  0  0  0  0  0  0
   20.2533   19.6726   21.8806 C   0  0  0  0  0  0  0  0  0  0  0  0
   19.9496   20.2222   22.7825 H   0  0  0  0  0  0  0  0  0  0  0  0
   21.3508   19.7108   21.8383 H   0  0  0  0  0  0  0  0  0  0  0  0
   19.6634   20.3601   20.6329 C   0  0  0  0  0  0  0  0  0  0  0  0
   20.0014   21.4028   20.5697 H   0  0  0  0  0  0  0  0  0  0  0  0
   19.9779   19.8456   19.7153 H   0  0  0  0  0  0  0  0  0  0  0  0
   18.5660   20.3610   20.6668 H   0  0  0  0  0  0  0  0  0  0  0  0
  1  2  1  0  0  0  0
  1  3  2  0  0  0  0
  1  4  1  0  0  0  0
  4  5  1  0  0  0  0
  4  6  1  0  0  0  0
  4  7  1  0  0  0  0
  7  8  1  0  0  0  0
  7  9  1  0  0  0  0
  7 10  1  0  0  0  0
 10 11  1  0  0  0  0
 10 12  1  0  0  0  0
 10 13  1  0  0  0  0
M  END
> <VConfSearch Rank>
886

> <Conf_Id>
1

> <Delta U+W>
-1.339

> <U+W>
-59.672

> <U>
7.389

> <W>
-67.061

> <W(PB)>
-68.767

> <W(SA)>
1.707

> <Valence>
5.822

> <Coulomb>
1.255

> <VdW>
0.312

> <VdW6>
-3.061

> <VdW12>
3.372

> <Bond>
0.059

> <Angle>
2.241

> <Pdih>
3.522

> <Idih>
0.000

> <Tether>
0.000

$$$$
VeraChem MOL file


 13 12  0  0  0  0  0  0  0  0999 V2000     
   19.3226   20.2863   22.9068 C   0  0  0  0  0  0  0  0  0  0  0  0
   18.1080   20.2925   22.8766 O   0  5  0  0  0  0  0  0  0  0  0  0
   19.9689   20.5466   23.9019 O   0  0  0  0  0  0  0  0  0  0  0  0
   20.0736   19.9695   21.6159 C   0  0  0  0  0  0  0  0  0  0  0  0
   21.1106   20.3117   21.7197 H   0  0  0  0  0  0  0  0  0  0  0  0
   19.6204   20.5700   20.8181 H   0  0  0  0  0  0  0  0  0  0  0  0
   20.0429   18.4723   21.2149 C   0  0  0  0  0  0  0  0  0  0  0  0
   19.0006   18.1292   21.1541 H   0  0  0  0  0  0  0  0  0  0  0  0
   20.4713   18.3602   20.2095 H   0  0  0  0  0  0  0  0  0  0  0  0
   20.8282   17.5813   22.1995 C   0  0  0  0  0  0  0  0  0  0  0  0
   20.3987   17.6346   23.2087 H   0  0  0  0  0  0  0  0  0  0  0  0
   20.8032   16.5324   21.8764 H   0  0  0  0  0  0  0  0  0  0  0  0
   21.8792   17.8934   22.2587 H   0  0  0  0  0  0  0  0  0  0  0  0
  1  2  1  0  0  0  0
  1  3  2  0  0  0  0
  1  4  1  0  0  0  0
  4  5  1  0  0  0  0
  4  6  1  0  0  0  0
  4  7  1  0  0  0  0
  7  8  1  0  0  0  0
  7  9  1  0  0  0  0
  7 10  1  0  0  0  0
 10 11  1  0  0  0  0
 10 12  1  0  0  0  0
 10 13  1  0  0  0  0
M  END
> <VConfSearch Rank>
887

> <Conf_Id>
4

> <Delta U+W>
0.281

> <U+W>
-58.051

> <U>
9.781

> <W>
-67.832

> <W(PB)>
-69.535

> <W(SA)>
1.703

> <Valence>
6.123

> <Coulomb>
3.449

> <VdW>
0.209

> <VdW6>
-3.762

> <VdW12>
3.972

> <Bond>
0.078

> <Angle>
2.428

> <Pdih>
3.616

> <Idih>
0.002

> <Tether>
0.000

$$$$
VeraChem MOL file


 13 12  0  0  0  0  0  0  0  0999 V2000     
   18.3630   19.3160   21.8820 C   0  0  0  0  0  0  0  0  0  0  0  0
   18.1723   20.1766   21.0460 O   0  5  0  0  0  0  0  0  0  0  0  0
   17.6195   18.3701   22.0509 O   0  0  0  0  0  0  0  0  0  0  0  0
   19.5808   19.4467   22.7934 C   0  0  0  0  0  0  0  0  0  0  0  0
   19.2372   19.2894   23.8228 H   0  0  0  0  0  0  0  0  0  0  0  0
   19.9525   20.4773   22.7376 H   0  0  0  0  0  0  0  0  0  0  0  0
   20.7232   18.4490   22.4731 C   0  0  0  0  0  0  0  0  0  0  0  0
   21.4855   18.5093   23.2619 H   0  0  0  0  0  0  0  0  0  0  0  0
   20.3308   17.4225   22.4910 H   0  0  0  0  0  0  0  0  0  0  0  0
   21.3867   18.7294   21.1088 C   0  0  0  0  0  0  0  0  0  0  0  0
   21.8057   19.7437   21.0774 H   0  0  0  0  0  0  0  0  0  0  0  0
   22.2025   18.0190   20.9221 H   0  0  0  0  0  0  0  0  0  0  0  0
   20.6612   18.6340   20.2901 H   0  0  0  0  0  0  0  0  0  0  0  0
  1  2  1  0  0  0  0
  1  3  2  0  0  0  0
  1  4  1  0  0  0  0
  4  5  1  0  0  0  0
  4  6  1  0  0  0  0
  4  7  1  0  0  0  0
  7  8  1  0  0  0  0
  7  9  1  0  0  0  0
  7 10  1  0  0  0  0
 10 11  1  0  0  0  0
 10 12  1  0  0  0  0
 10 13  1  0  0  0  0
M  END
> <VConfSearch Rank>
888

> <Conf_Id>
36

> <Delta U+W>
0.272

> <U+W>
-58.060

> <U>
9.781

> <W>
-67.841

> <W(PB)>
-69.537

> <W(SA)>
1.696

> <Valence>
6.123

> <Coulomb>
3.449

> <VdW>
0.209

> <VdW6>
-3.762

> <VdW12>
3.972

> <Bond>
0.078

> <Angle>
2.428

> <Pdih>
3.616

> <Idih>
0.002

> <Tether>
0.000

$$$$
VeraChem MOL file


 13 12  0  0  0  0  0  0  0  0999 V2000     
   20.3065   20.8121   22.9099 C   0  0  0  0  0  0  0  0  0  0  0  0
   19.2038   21.3093   22.7904 O   0  5  0  0  0  0  0  0  0  0  0  0
   21.2099   21.3459   23.5212 O   0  0  0  0  0  0  0  0  0  0  0  0
   20.6011   19.4528   22.2725 C   0  0  0  0  0  0  0  0  0  0  0  0
   20.9302   18.7798   23.0732 H   0  0  0  0  0  0  0  0  0  0  0  0
   21.4535   19.5861   21.5958 H   0  0  0  0  0  0  0  0  0  0  0  0
   19.4183   18.8096   21.5025 C   0  0  0  0  0  0  0  0  0  0  0  0
   18.5641   18.6796   22.1817 H   0  0  0  0  0  0  0  0  0  0  0  0
   19.0881   19.4869   20.7025 H   0  0  0  0  0  0  0  0  0  0  0  0
   19.8075   17.4462   20.8963 C   0  0  0  0  0  0  0  0  0  0  0  0
   20.1122   16.7403   21.6801 H   0  0  0  0  0  0  0  0  0  0  0  0
   18.9588   17.0070   20.3559 H   0  0  0  0  0  0  0  0  0  0  0  0
   20.6404   17.5541   20.1890 H   0  0  0  0  0  0  0  0  0  0  0  0
  1  2  1  0  0  0  0
  1  3  2  0  0  0  0
  1  4  1  0  0  0  0
  4  5  1  0  0  0  0
  4  6  1  0  0  0  0
  4  7  1  0  0  0  0
  7  8  1  0  0  0  0
  7  9  1  0  0  0  0
  7 10  1  0  0  0  0
 10 11  1  0  0  0  0
 10 12  1  0  0  0  0
 10 13  1  0  0  0  0
M  END
> <VConfSearch Rank>
889

> <Conf_Id>
0

> <Delta U+W>
0.000

> <U+W>
-58.332

> <U>
8.390

> <W>
-66.722

> <W(PB)>
-68.455

> <W(SA)>
1.733

> <Valence>
6.333

> <Coulomb>
1.215

> <VdW>
0.842

> <VdW6>
-3.344

> <VdW12>
4.186

> <Bond>
0.091

> <Angle>
2.713

> <Pdih>
3.529

> <Idih>
0.000

> <Tether>
0.000

$$$$
VeraChem MOL file


 13 12  0  0  0  0  0  0  0  0999 V2000     
   19.7021   20.6041   23.2212 C   0  0  0  0  0  0  0  0  0  0  0  0
   19.9914   20.3540   24.3741 O   0  5  0  0  0  0  0  0  0  0  0  0
   18.9057   21.4633   22.9004 O   0  0  0  0  0  0  0  0  0  0  0  0
   20.3602   19.7823   22.1179 C   0  0  0  0  0  0  0  0  0  0  0  0
   21.3689   19.5094   22.4510 H   0  0  0  0  0  0  0  0  0  0  0  0
   20.4736   20.4241   21.2357 H   0  0  0  0  0  0  0  0  0  0  0  0
   19.5578   18.5104   21.7516 C   0  0  0  0  0  0  0  0  0  0  0  0
   19.4419   17.8803   22.6446 H   0  0  0  0  0  0  0  0  0  0  0  0
   18.5466   18.7953   21.4290 H   0  0  0  0  0  0  0  0  0  0  0  0
   20.2486   17.7025   20.6348 C   0  0  0  0  0  0  0  0  0  0  0  0
   19.6655   16.8054   20.3891 H   0  0  0  0  0  0  0  0  0  0  0  0
   20.3490   18.3025   19.7207 H   0  0  0  0  0  0  0  0  0  0  0  0
   21.2512   17.3805   20.9457 H   0  0  0  0  0  0  0  0  0  0  0  0
  1  2  1  0  0  0  0
  1  3  2  0  0  0  0
  1  4  1  0  0  0  0
  4  5  1  0  0  0  0
  4  6  1  0  0  0  0
  4  7  1  0  0  0  0
  7  8  1  0  0  0  0
  7  9  1  0  0  0  0
  7 10  1  0  0  0  0
 10 11  1  0  0  0  0
 10 12  1  0  0  0  0
 10 13  1  0  0  0  0
M  END
> <VConfSearch Rank>
890

> <Conf_Id>
1

> <Delta U+W>
-1.339

> <U+W>
-59.672

> <U>
7.389

> <W>
-67.061

> <W(PB)>
-68.767

> <W(SA)>
1.707

> <Valence>
5.822

> <Coulomb>
1.255

> <VdW>
0.312

> <VdW6>
-3.061

> <VdW12>
3.372

> <Bond>
0.059

> <Angle>
2.241

> <Pdih>
3.522

> <Idih>
0.000

> <Tether>
0.000

$$$$
VeraChem MOL file


 13 12  0  0  0  0  0  0  0  0999 V2000     
   20.7937   17.4322   21.3596 C   0  0  0  0  0  0  0  0  0  0  0  0
   20.4750   17.1428   20.2235 O   0  5  0  0  0  0  0  0  0  0  0  0
   21.9094   17.2568   21.8074 O   0  0  0  0  0  0  0  0  0  0  0  0
   19.7248   18.0136   22.2816 C   0  0  0  0  0  0  0  0  0  0  0  0
   20.0663   17.9183   23.3196 H   0  0  0  0  0  0  0  0  0  0  0  0
   18.8314   17.3856   22.1833 H   0  0  0  0  0  0  0  0  0  0  0  0
   19.3552   19.4875   21.9745 C   0  0  0  0  0  0  0  0  0  0  0  0
   19.0541   19.5794   20.9214 H   0  0  0  0  0  0  0  0  0  0  0  0
   18.4829   19.7731   22.5782 H   0  0  0  0  0  0  0  0  0  0  0  0
   20.5143   20.4612   22.2718 C   0  0  0  0  0  0  0  0  0  0  0  0
   21.3911   20.2320   21.6516 H   0  0  0  0  0  0  0  0  0  0  0  0
   20.2135   21.4960   22.0628 H   0  0  0  0  0  0  0  0  0  0  0  0
   20.8164   20.4015   23.3256 H   0  0  0  0  0  0  0  0  0  0  0  0
  1  2  1  0  0  0  0
  1  3  2  0  0  0  0
  1  4  1  0  0  0  0
  4  5  1  0  0  0  0
  4  6  1  0  0  0  0
  4  7  1  0  0  0  0
  7  8  1  0  0  0  0
  7  9  1  0  0  0  0
  7 10  1  0  0  0  0
 10 11  1  0  0  0  0
 10 12  1  0  0  0  0
 10 13  1  0  0  0  0
M  END
> <VConfSearch Rank>
891

> <Conf_Id>
4

> <Delta U+W>
0.281

> <U+W>
-58.051

> <U>
9.781

> <W>
-67.832

> <W(PB)>
-69.535

> <W(SA)>
1.703

> <Valence>
6.123

> <Coulomb>
3.449

> <VdW>
0.209

> <VdW6>
-3.762

> <VdW12>
3.972

> <Bond>
0.078

> <Angle>
2.428

> <Pdih>
3.616

> <Idih>
0.002

> <Tether>
0.000

$$$$
VeraChem MOL file


 13 12  0  0  0  0  0  0  0  0999 V2000     
   18.9213   17.6551   22.2367 C   0  0  0  0  0  0  0  0  0  0  0  0
   18.8369   17.3923   23.4198 O   0  5  0  0  0  0  0  0  0  0  0  0
   17.9696   17.6561   21.4814 O   0  0  0  0  0  0  0  0  0  0  0  0
   20.2998   17.9659   21.6588 C   0  0  0  0  0  0  0  0  0  0  0  0
   20.4149   17.3670   20.7475 H   0  0  0  0  0  0  0  0  0  0  0  0
   21.0635   17.6179   22.3651 H   0  0  0  0  0  0  0  0  0  0  0  0
   20.5247   19.4628   21.3239 C   0  0  0  0  0  0  0  0  0  0  0  0
   21.4725   19.5712   20.7792 H   0  0  0  0  0  0  0  0  0  0  0  0
   19.7308   19.8119   20.6488 H   0  0  0  0  0  0  0  0  0  0  0  0
   20.5639   20.3505   22.5850 C   0  0  0  0  0  0  0  0  0  0  0  0
   21.3658   20.0324   23.2641 H   0  0  0  0  0  0  0  0  0  0  0  0
   20.7440   21.3991   22.3145 H   0  0  0  0  0  0  0  0  0  0  0  0
   19.6132   20.3009   23.1322 H   0  0  0  0  0  0  0  0  0  0  0  0
  1  2  1  0  0  0  0
  1  3  2  0  0  0  0
  1  4  1  0  0  0  0
  4  5  1  0  0  0  0
  4  6  1  0  0  0  0
  4  7  1  0  0  0  0
  7  8  1  0  0  0  0
  7  9  1  0  0  0  0
  7 10  1  0  0  0  0
 10 11  1  0  0  0  0
 10 12  1  0  0  0  0
 10 13  1  0  0  0  0
M  END
> <VConfSearch Rank>
892

> <Conf_Id>
36

> <Delta U+W>
0.272

> <U+W>
-58.060

> <U>
9.781

> <W>
-67.841

> <W(PB)>
-69.537

> <W(SA)>
1.696

> <Valence>
6.123

> <Coulomb>
3.449

> <VdW>
0.209

> <VdW6>
-3.762

> <VdW12>
3.972

> <Bond>
0.078

> <Angle>
2.428

> <Pdih>
3.616

> <Idih>
0.002

> <Tether>
0.000

$$$$
VeraChem MOL file


 13 12  0  0  0  0  0  0  0  0999 V2000     
   20.2816   19.3427   23.9098 C   0  0  0  0  0  0  0  0  0  0  0  0
   19.1276   19.2680   24.2841 O   0  5  0  0  0  0  0  0  0  0  0  0
   21.2085   19.5608   24.6635 O   0  0  0  0  0  0  0  0  0  0  0  0
   20.6140   19.1587   22.4278 C   0  0  0  0  0  0  0  0  0  0  0  0
   21.3306   18.3321   22.3529 H   0  0  0  0  0  0  0  0  0  0  0  0
   21.1339   20.0645   22.0936 H   0  0  0  0  0  0  0  0  0  0  0  0
   19.3993   18.8824   21.5036 C   0  0  0  0  0  0  0  0  0  0  0  0
   18.8780   17.9760   21.8420 H   0  0  0  0  0  0  0  0  0  0  0  0
   18.6810   19.7105   21.5824 H   0  0  0  0  0  0  0  0  0  0  0  0
   19.8300   18.7113   20.0329 C   0  0  0  0  0  0  0  0  0  0  0  0
   20.5253   17.8687   19.9226 H   0  0  0  0  0  0  0  0  0  0  0  0
   18.9579   18.5168   19.3949 H   0  0  0  0  0  0  0  0  0  0  0  0
   20.3267   19.6171   19.6610 H   0  0  0  0  0  0  0  0  0  0  0  0
  1  2  1  0  0  0  0
  1  3  2  0  0  0  0
  1  4  1  0  0  0  0
  4  5  1  0  0  0  0
  4  6  1  0  0  0  0
  4  7  1  0  0  0  0
  7  8  1  0  0  0  0
  7  9  1  0  0  0  0
  7 10  1  0  0  0  0
 10 11  1  0  0  0  0
 10 12  1  0  0  0  0
 10 13  1  0  0  0  0
M  END
> <VConfSearch Rank>
893

> <Conf_Id>
0

> <Delta U+W>
0.000

> <U+W>
-58.332

> <U>
8.390

> <W>
-66.722

> <W(PB)>
-68.455

> <W(SA)>
1.733

> <Valence>
6.333

> <Coulomb>
1.215

> <VdW>
0.842

> <VdW6>
-3.344

> <VdW12>
4.186

> <Bond>
0.091

> <Angle>
2.713

> <Pdih>
3.529

> <Idih>
0.000

> <Tether>
0.000

$$$$
VeraChem MOL file


 13 12  0  0  0  0  0  0  0  0999 V2000     
   19.1227   20.3319   23.2599 C   0  0  0  0  0  0  0  0  0  0  0  0
   19.8669   21.1518   23.7591 O   0  5  0  0  0  0  0  0  0  0  0  0
   18.1086   19.9320   23.7958 O   0  0  0  0  0  0  0  0  0  0  0  0
   19.4911   19.7597   21.8952 C   0  0  0  0  0  0  0  0  0  0  0  0
   20.0121   20.5401   21.3272 H   0  0  0  0  0  0  0  0  0  0  0  0
   18.5621   19.5342   21.3575 H   0  0  0  0  0  0  0  0  0  0  0  0
   20.3731   18.4912   21.9900 C   0  0  0  0  0  0  0  0  0  0  0  0
   21.2957   18.7266   22.5388 H   0  0  0  0  0  0  0  0  0  0  0  0
   19.8454   17.7204   22.5690 H   0  0  0  0  0  0  0  0  0  0  0  0
   20.7278   17.9381   20.5952 C   0  0  0  0  0  0  0  0  0  0  0  0
   21.3528   17.0398   20.6830 H   0  0  0  0  0  0  0  0  0  0  0  0
   19.8214   17.6673   20.0379 H   0  0  0  0  0  0  0  0  0  0  0  0
   21.2829   18.6811   20.0075 H   0  0  0  0  0  0  0  0  0  0  0  0
  1  2  1  0  0  0  0
  1  3  2  0  0  0  0
  1  4  1  0  0  0  0
  4  5  1  0  0  0  0
  4  6  1  0  0  0  0
  4  7  1  0  0  0  0
  7  8  1  0  0  0  0
  7  9  1  0  0  0  0
  7 10  1  0  0  0  0
 10 11  1  0  0  0  0
 10 12  1  0  0  0  0
 10 13  1  0  0  0  0
M  END
> <VConfSearch Rank>
894

> <Conf_Id>
1

> <Delta U+W>
-1.339

> <U+W>
-59.672

> <U>
7.389

> <W>
-67.061

> <W(PB)>
-68.767

> <W(SA)>
1.707

> <Valence>
5.822

> <Coulomb>
1.255

> <VdW>
0.312

> <VdW6>
-3.061

> <VdW12>
3.372

> <Bond>
0.059

> <Angle>
2.241

> <Pdih>
3.522

> <Idih>
0.000

> <Tether>
0.000

$$$$
VeraChem MOL file


 13 12  0  0  0  0  0  0  0  0999 V2000     
   21.7498   19.0338   21.2439 C   0  0  0  0  0  0  0  0  0  0  0  0
   22.0233   20.0607   20.6550 O   0  5  0  0  0  0  0  0  0  0  0  0
   22.5436   18.4259   21.9339 O   0  0  0  0  0  0  0  0  0  0  0  0
   20.3448   18.4603   21.0773 C   0  0  0  0  0  0  0  0  0  0  0  0
   20.3553   17.4085   21.3886 H   0  0  0  0  0  0  0  0  0  0  0  0
   20.1122   18.4709   20.0057 H   0  0  0  0  0  0  0  0  0  0  0  0
   19.2472   19.2351   21.8508 C   0  0  0  0  0  0  0  0  0  0  0  0
   19.2727   20.2952   21.5620 H   0  0  0  0  0  0  0  0  0  0  0  0
   18.2607   18.8514   21.5567 H   0  0  0  0  0  0  0  0  0  0  0  0
   19.4017   19.1079   23.3805 C   0  0  0  0  0  0  0  0  0  0  0  0
   20.3611   19.5235   23.7162 H   0  0  0  0  0  0  0  0  0  0  0  0
   18.5991   19.6505   23.8968 H   0  0  0  0  0  0  0  0  0  0  0  0
   19.3568   18.0565   23.6934 H   0  0  0  0  0  0  0  0  0  0  0  0
  1  2  1  0  0  0  0
  1  3  2  0  0  0  0
  1  4  1  0  0  0  0
  4  5  1  0  0  0  0
  4  6  1  0  0  0  0
  4  7  1  0  0  0  0
  7  8  1  0  0  0  0
  7  9  1  0  0  0  0
  7 10  1  0  0  0  0
 10 11  1  0  0  0  0
 10 12  1  0  0  0  0
 10 13  1  0  0  0  0
M  END
> <VConfSearch Rank>
895

> <Conf_Id>
4

> <Delta U+W>
0.281

> <U+W>
-58.051

> <U>
9.781

> <W>
-67.832

> <W(PB)>
-69.535

> <W(SA)>
1.703

> <Valence>
6.123

> <Coulomb>
3.449

> <VdW>
0.209

> <VdW6>
-3.762

> <VdW12>
3.972

> <Bond>
0.078

> <Angle>
2.428

> <Pdih>
3.616

> <Idih>
0.002

> <Tether>
0.000

$$$$
VeraChem MOL file


 13 12  0  0  0  0  0  0  0  0999 V2000     
   21.5981   19.6912   22.6995 C   0  0  0  0  0  0  0  0  0  0  0  0
   22.2876   20.1514   21.8114 O   0  5  0  0  0  0  0  0  0  0  0  0
   21.4707   20.2154   23.7881 O   0  0  0  0  0  0  0  0  0  0  0  0
   20.8816   18.3665   22.4496 C   0  0  0  0  0  0  0  0  0  0  0  0
   21.0767   17.7210   23.3143 H   0  0  0  0  0  0  0  0  0  0  0  0
   21.3389   17.8781   21.5803 H   0  0  0  0  0  0  0  0  0  0  0  0
   19.3513   18.5019   22.2422 C   0  0  0  0  0  0  0  0  0  0  0  0
   18.9009   17.5002   22.2213 H   0  0  0  0  0  0  0  0  0  0  0  0
   18.9093   19.0290   23.0994 H   0  0  0  0  0  0  0  0  0  0  0  0
   18.9957   19.2417   20.9360 C   0  0  0  0  0  0  0  0  0  0  0  0
   19.4095   18.7188   20.0638 H   0  0  0  0  0  0  0  0  0  0  0  0
   17.9069   19.3029   20.8101 H   0  0  0  0  0  0  0  0  0  0  0  0
   19.3936   20.2651   20.9411 H   0  0  0  0  0  0  0  0  0  0  0  0
  1  2  1  0  0  0  0
  1  3  2  0  0  0  0
  1  4  1  0  0  0  0
  4  5  1  0  0  0  0
  4  6  1  0  0  0  0
  4  7  1  0  0  0  0
  7  8  1  0  0  0  0
  7  9  1  0  0  0  0
  7 10  1  0  0  0  0
 10 11  1  0  0  0  0
 10 12  1  0  0  0  0
 10 13  1  0  0  0  0
M  END
> <VConfSearch Rank>
896

> <Conf_Id>
36

> <Delta U+W>
0.272

> <U+W>
-58.060

> <U>
9.781

> <W>
-67.841

> <W(PB)>
-69.537

> <W(SA)>
1.696

> <Valence>
6.123

> <Coulomb>
3.449

> <VdW>
0.209

> <VdW6>
-3.762

> <VdW12>
3.972

> <Bond>
0.078

> <Angle>
2.428

> <Pdih>
3.616

> <Idih>
0.002

> <Tether>
0.000

$$$$
VeraChem MOL file


 13 12  0  0  0  0  0  0  0  0999 V2000     
   19.4907   20.9776   21.2235 C   0  0  0  0  0  0  0  0  0  0  0  0
   20.5932   21.4387   21.0018 O   0  5  0  0  0  0  0  0  0  0  0  0
   18.4670   21.6167   21.0878 O   0  0  0  0  0  0  0  0  0  0  0  0
   19.3530   19.5292   21.6967 C   0  0  0  0  0  0  0  0  0  0  0  0
   18.7064   19.0101   20.9792 H   0  0  0  0  0  0  0  0  0  0  0  0
   18.8193   19.5466   22.6544 H   0  0  0  0  0  0  0  0  0  0  0  0
   20.6862   18.7525   21.8556 C   0  0  0  0  0  0  0  0  0  0  0  0
   21.2209   18.7387   20.8955 H   0  0  0  0  0  0  0  0  0  0  0  0
   21.3339   19.2759   22.5727 H   0  0  0  0  0  0  0  0  0  0  0  0
   20.4491   17.3062   22.3349 C   0  0  0  0  0  0  0  0  0  0  0  0
   19.8289   16.7515   21.6185 H   0  0  0  0  0  0  0  0  0  0  0  0
   21.4028   16.7730   22.4415 H   0  0  0  0  0  0  0  0  0  0  0  0
   19.9428   17.2931   23.3091 H   0  0  0  0  0  0  0  0  0  0  0  0
  1  2  1  0  0  0  0
  1  3  2  0  0  0  0
  1  4  1  0  0  0  0
  4  5  1  0  0  0  0
  4  6  1  0  0  0  0
  4  7  1  0  0  0  0
  7  8  1  0  0  0  0
  7  9  1  0  0  0  0
  7 10  1  0  0  0  0
 10 11  1  0  0  0  0
 10 12  1  0  0  0  0
 10 13  1  0  0  0  0
M  END
> <VConfSearch Rank>
897

> <Conf_Id>
0

> <Delta U+W>
0.000

> <U+W>
-58.332

> <U>
8.390

> <W>
-66.722

> <W(PB)>
-68.455

> <W(SA)>
1.733

> <Valence>
6.333

> <Coulomb>
1.215

> <VdW>
0.842

> <VdW6>
-3.344

> <VdW12>
4.186

> <Bond>
0.091

> <Angle>
2.713

> <Pdih>
3.529

> <Idih>
0.000

> <Tether>
0.000

$$$$
VeraChem MOL file


 13 12  0  0  0  0  0  0  0  0999 V2000     
   18.7979   17.3016   21.9736 C   0  0  0  0  0  0  0  0  0  0  0  0
   17.9642   17.1536   21.1028 O   0  5  0  0  0  0  0  0  0  0  0  0
   18.7110   16.8024   23.0775 O   0  0  0  0  0  0  0  0  0  0  0  0
   20.0096   18.1766   21.6710 C   0  0  0  0  0  0  0  0  0  0  0  0
   20.2485   18.0723   20.6056 H   0  0  0  0  0  0  0  0  0  0  0  0
   20.8644   17.7827   22.2341 H   0  0  0  0  0  0  0  0  0  0  0  0
   19.7816   19.6668   22.0222 C   0  0  0  0  0  0  0  0  0  0  0  0
   18.9174   20.0477   21.4601 H   0  0  0  0  0  0  0  0  0  0  0  0
   19.5335   19.7581   23.0889 H   0  0  0  0  0  0  0  0  0  0  0  0
   21.0234   20.5237   21.7048 C   0  0  0  0  0  0  0  0  0  0  0  0
   20.8427   21.5760   21.9603 H   0  0  0  0  0  0  0  0  0  0  0  0
   21.8946   20.1804   22.2783 H   0  0  0  0  0  0  0  0  0  0  0  0
   21.2737   20.4723   20.6369 H   0  0  0  0  0  0  0  0  0  0  0  0
  1  2  1  0  0  0  0
  1  3  2  0  0  0  0
  1  4  1  0  0  0  0
  4  5  1  0  0  0  0
  4  6  1  0  0  0  0
  4  7  1  0  0  0  0
  7  8  1  0  0  0  0
  7  9  1  0  0  0  0
  7 10  1  0  0  0  0
 10 11  1  0  0  0  0
 10 12  1  0  0  0  0
 10 13  1  0  0  0  0
M  END
> <VConfSearch Rank>
898

> <Conf_Id>
1

> <Delta U+W>
-1.339

> <U+W>
-59.672

> <U>
7.389

> <W>
-67.061

> <W(PB)>
-68.767

> <W(SA)>
1.707

> <Valence>
5.822

> <Coulomb>
1.255

> <VdW>
0.312

> <VdW6>
-3.061

> <VdW12>
3.372

> <Bond>
0.059

> <Angle>
2.241

> <Pdih>
3.522

> <Idih>
0.000

> <Tether>
0.000

$$$$
VeraChem MOL file


 13 12  0  0  0  0  0  0  0  0999 V2000     
   19.1224   20.4492   22.0973 C   0  0  0  0  0  0  0  0  0  0  0  0
   17.9471   20.3175   21.8188 O   0  5  0  0  0  0  0  0  0  0  0  0
   19.5207   21.1499   23.0063 O   0  0  0  0  0  0  0  0  0  0  0  0
   20.1525   19.7233   21.2355 C   0  0  0  0  0  0  0  0  0  0  0  0
   21.1347   20.1835   21.3994 H   0  0  0  0  0  0  0  0  0  0  0  0
   19.8885   19.9057   20.1870 H   0  0  0  0  0  0  0  0  0  0  0  0
   20.2294   18.1960   21.4897 C   0  0  0  0  0  0  0  0  0  0  0  0
   19.2322   17.7515   21.3632 H   0  0  0  0  0  0  0  0  0  0  0  0
   20.8780   17.7371   20.7310 H   0  0  0  0  0  0  0  0  0  0  0  0
   20.7767   17.8576   22.8918 C   0  0  0  0  0  0  0  0  0  0  0  0
   20.1266   18.2642   23.6779 H   0  0  0  0  0  0  0  0  0  0  0  0
   20.8367   16.7704   23.0316 H   0  0  0  0  0  0  0  0  0  0  0  0
   21.7829   18.2741   23.0313 H   0  0  0  0  0  0  0  0  0  0  0  0
  1  2  1  0  0  0  0
  1  3  2  0  0  0  0
  1  4  1  0  0  0  0
  4  5  1  0  0  0  0
  4  6  1  0  0  0  0
  4  7  1  0  0  0  0
  7  8  1  0  0  0  0
  7  9  1  0  0  0  0
  7 10  1  0  0  0  0
 10 11  1  0  0  0  0
 10 12  1  0  0  0  0
 10 13  1  0  0  0  0
M  END
> <VConfSearch Rank>
899

> <Conf_Id>
4

> <Delta U+W>
0.281

> <U+W>
-58.051

> <U>
9.781

> <W>
-67.832

> <W(PB)>
-69.535

> <W(SA)>
1.703

> <Valence>
6.123

> <Coulomb>
3.449

> <VdW>
0.209

> <VdW6>
-3.762

> <VdW12>
3.972

> <Bond>
0.078

> <Angle>
2.428

> <Pdih>
3.616

> <Idih>
0.002

> <Tether>
0.000

$$$$
VeraChem MOL file


 13 12  0  0  0  0  0  0  0  0999 V2000     
   19.5769   18.2136   20.4637 C   0  0  0  0  0  0  0  0  0  0  0  0
   20.3982   18.4257   19.5939 O   0  5  0  0  0  0  0  0  0  0  0  0
   18.9687   17.1673   20.5696 O   0  0  0  0  0  0  0  0  0  0  0  0
   19.2649   19.3317   21.4553 C   0  0  0  0  0  0  0  0  0  0  0  0
   18.1736   19.4198   21.5161 H   0  0  0  0  0  0  0  0  0  0  0  0
   19.6367   20.2789   21.0454 H   0  0  0  0  0  0  0  0  0  0  0  0
   19.8433   19.1007   22.8749 C   0  0  0  0  0  0  0  0  0  0  0  0
   19.4477   19.8682   23.5541 H   0  0  0  0  0  0  0  0  0  0  0  0
   19.4981   18.1306   23.2593 H   0  0  0  0  0  0  0  0  0  0  0  0
   21.3850   19.1521   22.8998 C   0  0  0  0  0  0  0  0  0  0  0  0
   21.7511   20.1226   22.5400 H   0  0  0  0  0  0  0  0  0  0  0  0
   21.7605   19.0047   23.9208 H   0  0  0  0  0  0  0  0  0  0  0  0
   21.8164   18.3674   22.2643 H   0  0  0  0  0  0  0  0  0  0  0  0
  1  2  1  0  0  0  0
  1  3  2  0  0  0  0
  1  4  1  0  0  0  0
  4  5  1  0  0  0  0
  4  6  1  0  0  0  0
  4  7  1  0  0  0  0
  7  8  1  0  0  0  0
  7  9  1  0  0  0  0
  7 10  1  0  0  0  0
 10 11  1  0  0  0  0
 10 12  1  0  0  0  0
 10 13  1  0  0  0  0
M  END
> <VConfSearch Rank>
900

> <Conf_Id>
36

> <Delta U+W>
0.272

> <U+W>
-58.060

> <U>
9.781

> <W>
-67.841

> <W(PB)>
-69.537

> <W(SA)>
1.696

> <Valence>
6.123

> <Coulomb>
3.449

> <VdW>
0.209

> <VdW6>
-3.762

> <VdW12>
3.972

> <Bond>
0.078

> <Angle>
2.428

> <Pdih>
3.616

> <Idih>
0.002

> <Tether>
0.000

$$$$
VeraChem MOL file


 13 12  0  0  0  0  0  0  0  0999 V2000     
   20.0824   21.1116   22.1182 C   0  0  0  0  0  0  0  0  0  0  0  0
   19.1389   21.4518   21.4317 O   0  5  0  0  0  0  0  0  0  0  0  0
   20.7668   21.8996   22.7391 O   0  0  0  0  0  0  0  0  0  0  0  0
   20.4504   19.6304   22.2253 C   0  0  0  0  0  0  0  0  0  0  0  0
   20.4209   19.3614   23.2879 H   0  0  0  0  0  0  0  0  0  0  0  0
   21.4917   19.5269   21.8976 H   0  0  0  0  0  0  0  0  0  0  0  0
   19.5492   18.6617   21.4159 C   0  0  0  0  0  0  0  0  0  0  0  0
   18.5057   18.7691   21.7438 H   0  0  0  0  0  0  0  0  0  0  0  0
   19.5778   18.9348   20.3518 H   0  0  0  0  0  0  0  0  0  0  0  0
   19.9945   17.1950   21.5841 C   0  0  0  0  0  0  0  0  0  0  0  0
   19.9449   16.8876   22.6370 H   0  0  0  0  0  0  0  0  0  0  0  0
   19.3457   16.5252   21.0047 H   0  0  0  0  0  0  0  0  0  0  0  0
   21.0256   17.0547   21.2339 H   0  0  0  0  0  0  0  0  0  0  0  0
  1  2  1  0  0  0  0
  1  3  2  0  0  0  0
  1  4  1  0  0  0  0
  4  5  1  0  0  0  0
  4  6  1  0  0  0  0
  4  7  1  0  0  0  0
  7  8  1  0  0  0  0
  7  9  1  0  0  0  0
  7 10  1  0  0  0  0
 10 11  1  0  0  0  0
 10 12  1  0  0  0  0
 10 13  1  0  0  0  0
M  END
> <VConfSearch Rank>
901

> <Conf_Id>
0

> <Delta U+W>
0.000

> <U+W>
-58.332

> <U>
8.390

> <W>
-66.722

> <W(PB)>
-68.455

> <W(SA)>
1.733

> <Valence>
6.333

> <Coulomb>
1.215

> <VdW>
0.842

> <VdW6>
-3.344

> <VdW12>
4.186

> <Bond>
0.091

> <Angle>
2.713

> <Pdih>
3.529

> <Idih>
0.000

> <Tether>
0.000

$$$$
VeraChem MOL file


 13 12  0  0  0  0  0  0  0  0999 V2000     
   19.4542   18.8371   23.8649 C   0  0  0  0  0  0  0  0  0  0  0  0
   18.9753   17.7683   24.1869 O   0  5  0  0  0  0  0  0  0  0  0  0
   19.2548   19.8713   24.4700 O   0  0  0  0  0  0  0  0  0  0  0  0
   20.3381   18.8867   22.6232 C   0  0  0  0  0  0  0  0  0  0  0  0
   20.8669   17.9292   22.5421 H   0  0  0  0  0  0  0  0  0  0  0  0
   21.0973   19.6635   22.7755 H   0  0  0  0  0  0  0  0  0  0  0  0
   19.5420   19.1672   21.3258 C   0  0  0  0  0  0  0  0  0  0  0  0
   18.7783   18.3888   21.1889 H   0  0  0  0  0  0  0  0  0  0  0  0
   19.0090   20.1234   21.4223 H   0  0  0  0  0  0  0  0  0  0  0  0
   20.4631   19.2110   20.0901 C   0  0  0  0  0  0  0  0  0  0  0  0
   19.8811   19.4107   19.1808 H   0  0  0  0  0  0  0  0  0  0  0  0
   21.2175   20.0024   20.1904 H   0  0  0  0  0  0  0  0  0  0  0  0
   20.9851   18.2545   19.9552 H   0  0  0  0  0  0  0  0  0  0  0  0
  1  2  1  0  0  0  0
  1  3  2  0  0  0  0
  1  4  1  0  0  0  0
  4  5  1  0  0  0  0
  4  6  1  0  0  0  0
  4  7  1  0  0  0  0
  7  8  1  0  0  0  0
  7  9  1  0  0  0  0
  7 10  1  0  0  0  0
 10 11  1  0  0  0  0
 10 12  1  0  0  0  0
 10 13  1  0  0  0  0
M  END
> <VConfSearch Rank>
902

> <Conf_Id>
1

> <Delta U+W>
-1.339

> <U+W>
-59.672

> <U>
7.389

> <W>
-67.061

> <W(PB)>
-68.767

> <W(SA)>
1.707

> <Valence>
5.822

> <Coulomb>
1.255

> <VdW>
0.312

> <VdW6>
-3.061

> <VdW12>
3.372

> <Bond>
0.059

> <Angle>
2.241

> <Pdih>
3.522

> <Idih>
0.000

> <Tether>
0.000

$$$$
VeraChem MOL file


 13 12  0  0  0  0  0  0  0  0999 V2000     
   18.9602   17.8654   22.7960 C   0  0  0  0  0  0  0  0  0  0  0  0
   19.2909   17.4376   23.8840 O   0  5  0  0  0  0  0  0  0  0  0  0
   17.8259   18.2078   22.5276 O   0  0  0  0  0  0  0  0  0  0  0  0
   20.0199   17.9420   21.6997 C   0  0  0  0  0  0  0  0  0  0  0  0
   19.5160   18.0316   20.7294 H   0  0  0  0  0  0  0  0  0  0  0  0
   20.5527   16.9836   21.6924 H   0  0  0  0  0  0  0  0  0  0  0  0
   21.0383   19.0967   21.8810 C   0  0  0  0  0  0  0  0  0  0  0  0
   21.5071   19.0213   22.8722 H   0  0  0  0  0  0  0  0  0  0  0  0
   21.8434   18.9858   21.1418 H   0  0  0  0  0  0  0  0  0  0  0  0
   20.3902   20.4869   21.7155 C   0  0  0  0  0  0  0  0  0  0  0  0
   19.6083   20.6500   22.4690 H   0  0  0  0  0  0  0  0  0  0  0  0
   21.1408   21.2797   21.8301 H   0  0  0  0  0  0  0  0  0  0  0  0
   19.9345   20.5916   20.7222 H   0  0  0  0  0  0  0  0  0  0  0  0
  1  2  1  0  0  0  0
  1  3  2  0  0  0  0
  1  4  1  0  0  0  0
  4  5  1  0  0  0  0
  4  6  1  0  0  0  0
  4  7  1  0  0  0  0
  7  8  1  0  0  0  0
  7  9  1  0  0  0  0
  7 10  1  0  0  0  0
 10 11  1  0  0  0  0
 10 12  1  0  0  0  0
 10 13  1  0  0  0  0
M  END
> <VConfSearch Rank>
903

> <Conf_Id>
4

> <Delta U+W>
0.281

> <U+W>
-58.051

> <U>
9.781

> <W>
-67.832

> <W(PB)>
-69.535

> <W(SA)>
1.703

> <Valence>
6.123

> <Coulomb>
3.449

> <VdW>
0.209

> <VdW6>
-3.762

> <VdW12>
3.972

> <Bond>
0.078

> <Angle>
2.428

> <Pdih>
3.616

> <Idih>
0.002

> <Tether>
0.000

$$$$
VeraChem MOL file


 13 12  0  0  0  0  0  0  0  0999 V2000     
   19.7316   18.8502   20.2507 C   0  0  0  0  0  0  0  0  0  0  0  0
   20.7121   19.1441   19.5964 O   0  5  0  0  0  0  0  0  0  0  0  0
   18.9541   17.9718   19.9343 O   0  0  0  0  0  0  0  0  0  0  0  0
   19.4391   19.6487   21.5186 C   0  0  0  0  0  0  0  0  0  0  0  0
   18.3819   19.9380   21.4863 H   0  0  0  0  0  0  0  0  0  0  0  0
   20.0225   20.5773   21.4915 H   0  0  0  0  0  0  0  0  0  0  0  0
   19.7228   18.8781   22.8335 C   0  0  0  0  0  0  0  0  0  0  0  0
   19.3459   19.4643   23.6827 H   0  0  0  0  0  0  0  0  0  0  0  0
   19.1659   17.9306   22.8319 H   0  0  0  0  0  0  0  0  0  0  0  0
   21.2257   18.5988   23.0416 C   0  0  0  0  0  0  0  0  0  0  0  0
   21.7988   19.5349   23.0687 H   0  0  0  0  0  0  0  0  0  0  0  0
   21.3934   18.0704   23.9892 H   0  0  0  0  0  0  0  0  0  0  0  0
   21.6272   17.9758   22.2314 H   0  0  0  0  0  0  0  0  0  0  0  0
  1  2  1  0  0  0  0
  1  3  2  0  0  0  0
  1  4  1  0  0  0  0
  4  5  1  0  0  0  0
  4  6  1  0  0  0  0
  4  7  1  0  0  0  0
  7  8  1  0  0  0  0
  7  9  1  0  0  0  0
  7 10  1  0  0  0  0
 10 11  1  0  0  0  0
 10 12  1  0  0  0  0
 10 13  1  0  0  0  0
M  END
> <VConfSearch Rank>
904

> <Conf_Id>
36

> <Delta U+W>
0.272

> <U+W>
-58.060

> <U>
9.781

> <W>
-67.841

> <W(PB)>
-69.537

> <W(SA)>
1.696

> <Valence>
6.123

> <Coulomb>
3.449

> <VdW>
0.209

> <VdW6>
-3.762

> <VdW12>
3.972

> <Bond>
0.078

> <Angle>
2.428

> <Pdih>
3.616

> <Idih>
0.002

> <Tether>
0.000

$$$$
VeraChem MOL file


 13 12  0  0  0  0  0  0  0  0999 V2000     
   22.1404   18.9039   22.0517 C   0  0  0  0  0  0  0  0  0  0  0  0
   22.2157   18.6562   23.2392 O   0  5  0  0  0  0  0  0  0  0  0  0
   23.1158   19.0291   21.3391 O   0  0  0  0  0  0  0  0  0  0  0  0
   20.7688   19.0717   21.3951 C   0  0  0  0  0  0  0  0  0  0  0  0
   20.7046   18.3421   20.5791 H   0  0  0  0  0  0  0  0  0  0  0  0
   20.7445   20.0676   20.9368 H   0  0  0  0  0  0  0  0  0  0  0  0
   19.5530   18.9032   22.3435 C   0  0  0  0  0  0  0  0  0  0  0  0
   19.5808   17.9057   22.8039 H   0  0  0  0  0  0  0  0  0  0  0  0
   19.6208   19.6333   23.1621 H   0  0  0  0  0  0  0  0  0  0  0  0
   18.2173   19.0892   21.5956 C   0  0  0  0  0  0  0  0  0  0  0  0
   18.1114   18.3499   20.7909 H   0  0  0  0  0  0  0  0  0  0  0  0
   17.3696   18.9665   22.2823 H   0  0  0  0  0  0  0  0  0  0  0  0
   18.1517   20.0913   21.1519 H   0  0  0  0  0  0  0  0  0  0  0  0
  1  2  1  0  0  0  0
  1  3  2  0  0  0  0
  1  4  1  0  0  0  0
  4  5  1  0  0  0  0
  4  6  1  0  0  0  0
  4  7  1  0  0  0  0
  7  8  1  0  0  0  0
  7  9  1  0  0  0  0
  7 10  1  0  0  0  0
 10 11  1  0  0  0  0
 10 12  1  0  0  0  0
 10 13  1  0  0  0  0
M  END
> <VConfSearch Rank>
905

> <Conf_Id>
0

> <Delta U+W>
0.000

> <U+W>
-58.332

> <U>
8.390

> <W>
-66.722

> <W(PB)>
-68.455

> <W(SA)>
1.733

> <Valence>
6.333

> <Coulomb>
1.215

> <VdW>
0.842

> <VdW6>
-3.344

> <VdW12>
4.186

> <Bond>
0.091

> <Angle>
2.713

> <Pdih>
3.529

> <Idih>
0.000

> <Tether>
0.000

$$$$
VeraChem MOL file


 13 12  0  0  0  0  0  0  0  0999 V2000     
   19.8044   21.1205   22.1412 C   0  0  0  0  0  0  0  0  0  0  0  0
   18.7873   21.4898   22.6930 O   0  5  0  0  0  0  0  0  0  0  0  0
   20.4669   21.8297   21.4108 O   0  0  0  0  0  0  0  0  0  0  0  0
   20.2640   19.6834   22.3622 C   0  0  0  0  0  0  0  0  0  0  0  0
   19.9747   19.3847   23.3772 H   0  0  0  0  0  0  0  0  0  0  0  0
   21.3598   19.6650   22.3198 H   0  0  0  0  0  0  0  0  0  0  0  0
   19.6742   18.6946   21.3276 C   0  0  0  0  0  0  0  0  0  0  0  0
   18.5767   18.7288   21.3723 H   0  0  0  0  0  0  0  0  0  0  0  0
   19.9621   19.0090   20.3147 H   0  0  0  0  0  0  0  0  0  0  0  0
   20.1573   17.2520   21.5782 C   0  0  0  0  0  0  0  0  0  0  0  0
   19.7291   16.5662   20.8354 H   0  0  0  0  0  0  0  0  0  0  0  0
   21.2512   17.1865   21.5091 H   0  0  0  0  0  0  0  0  0  0  0  0
   19.8550   16.9040   22.5747 H   0  0  0  0  0  0  0  0  0  0  0  0
  1  2  1  0  0  0  0
  1  3  2  0  0  0  0
  1  4  1  0  0  0  0
  4  5  1  0  0  0  0
  4  6  1  0  0  0  0
  4  7  1  0  0  0  0
  7  8  1  0  0  0  0
  7  9  1  0  0  0  0
  7 10  1  0  0  0  0
 10 11  1  0  0  0  0
 10 12  1  0  0  0  0
 10 13  1  0  0  0  0
M  END
> <VConfSearch Rank>
906

> <Conf_Id>
1

> <Delta U+W>
-1.339

> <U+W>
-59.672

> <U>
7.389

> <W>
-67.061

> <W(PB)>
-68.767

> <W(SA)>
1.707

> <Valence>
5.822

> <Coulomb>
1.255

> <VdW>
0.312

> <VdW6>
-3.061

> <VdW12>
3.372

> <Bond>
0.059

> <Angle>
2.241

> <Pdih>
3.522

> <Idih>
0.000

> <Tether>
0.000

$$$$
VeraChem MOL file


 13 12  0  0  0  0  0  0  0  0999 V2000     
   20.6015   19.3820   20.3200 C   0  0  0  0  0  0  0  0  0  0  0  0
   20.5983   18.4652   19.5228 O   0  5  0  0  0  0  0  0  0  0  0  0
   20.2174   20.5031   20.0527 O   0  0  0  0  0  0  0  0  0  0  0  0
   21.1510   19.1175   21.7196 C   0  0  0  0  0  0  0  0  0  0  0  0
   21.3821   20.0793   22.1939 H   0  0  0  0  0  0  0  0  0  0  0  0
   22.1027   18.5856   21.6022 H   0  0  0  0  0  0  0  0  0  0  0  0
   20.2055   18.2886   22.6264 C   0  0  0  0  0  0  0  0  0  0  0  0
   19.9474   17.3458   22.1241 H   0  0  0  0  0  0  0  0  0  0  0  0
   20.7369   18.0192   23.5494 H   0  0  0  0  0  0  0  0  0  0  0  0
   18.9170   19.0541   22.9919 C   0  0  0  0  0  0  0  0  0  0  0  0
   18.3365   19.3015   22.0932 H   0  0  0  0  0  0  0  0  0  0  0  0
   18.2802   18.4479   23.6493 H   0  0  0  0  0  0  0  0  0  0  0  0
   19.1517   19.9902   23.5153 H   0  0  0  0  0  0  0  0  0  0  0  0
  1  2  1  0  0  0  0
  1  3  2  0  0  0  0
  1  4  1  0  0  0  0
  4  5  1  0  0  0  0
  4  6  1  0  0  0  0
  4  7  1  0  0  0  0
  7  8  1  0  0  0  0
  7  9  1  0  0  0  0
  7 10  1  0  0  0  0
 10 11  1  0  0  0  0
 10 12  1  0  0  0  0
 10 13  1  0  0  0  0
M  END
> <VConfSearch Rank>
907

> <Conf_Id>
4

> <Delta U+W>
0.281

> <U+W>
-58.051

> <U>
9.781

> <W>
-67.832

> <W(PB)>
-69.535

> <W(SA)>
1.703

> <Valence>
6.123

> <Coulomb>
3.449

> <VdW>
0.209

> <VdW6>
-3.762

> <VdW12>
3.972

> <Bond>
0.078

> <Angle>
2.428

> <Pdih>
3.616

> <Idih>
0.002

> <Tether>
0.000

$$$$
VeraChem MOL file


 13 12  0  0  0  0  0  0  0  0999 V2000     
   18.6014   18.0260   22.1590 C   0  0  0  0  0  0  0  0  0  0  0  0
   18.5252   17.5670   23.2813 O   0  5  0  0  0  0  0  0  0  0  0  0
   17.6435   18.4464   21.5411 O   0  0  0  0  0  0  0  0  0  0  0  0
   19.9652   18.0436   21.4731 C   0  0  0  0  0  0  0  0  0  0  0  0
   19.8301   17.6311   20.4662 H   0  0  0  0  0  0  0  0  0  0  0  0
   20.6364   17.3604   22.0079 H   0  0  0  0  0  0  0  0  0  0  0  0
   20.6064   19.4514   21.3718 C   0  0  0  0  0  0  0  0  0  0  0  0
   21.5021   19.3941   20.7382 H   0  0  0  0  0  0  0  0  0  0  0  0
   19.9091   20.1379   20.8715 H   0  0  0  0  0  0  0  0  0  0  0  0
   20.9999   20.0215   22.7502 C   0  0  0  0  0  0  0  0  0  0  0  0
   21.7144   19.3610   23.2587 H   0  0  0  0  0  0  0  0  0  0  0  0
   21.4679   21.0085   22.6413 H   0  0  0  0  0  0  0  0  0  0  0  0
   20.1194   20.1343   23.3966 H   0  0  0  0  0  0  0  0  0  0  0  0
  1  2  1  0  0  0  0
  1  3  2  0  0  0  0
  1  4  1  0  0  0  0
  4  5  1  0  0  0  0
  4  6  1  0  0  0  0
  4  7  1  0  0  0  0
  7  8  1  0  0  0  0
  7  9  1  0  0  0  0
  7 10  1  0  0  0  0
 10 11  1  0  0  0  0
 10 12  1  0  0  0  0
 10 13  1  0  0  0  0
M  END
> <VConfSearch Rank>
908

> <Conf_Id>
36

> <Delta U+W>
0.272

> <U+W>
-58.060

> <U>
9.781

> <W>
-67.841

> <W(PB)>
-69.537

> <W(SA)>
1.696

> <Valence>
6.123

> <Coulomb>
3.449

> <VdW>
0.209

> <VdW6>
-3.762

> <VdW12>
3.972

> <Bond>
0.078

> <Angle>
2.428

> <Pdih>
3.616

> <Idih>
0.002

> <Tether>
0.000

$$$$
VeraChem MOL file


 13 12  0  0  0  0  0  0  0  0999 V2000     
   21.6604   18.9113   23.1837 C   0  0  0  0  0  0  0  0  0  0  0  0
   21.6908   20.0670   23.5588 O   0  5  0  0  0  0  0  0  0  0  0  0
   22.4342   18.0654   23.5844 O   0  0  0  0  0  0  0  0  0  0  0  0
   20.6117   18.4709   22.1605 C   0  0  0  0  0  0  0  0  0  0  0  0
   20.0368   17.6534   22.6116 H   0  0  0  0  0  0  0  0  0  0  0  0
   21.1481   18.0495   21.3020 H   0  0  0  0  0  0  0  0  0  0  0  0
   19.6458   19.5844   21.6777 C   0  0  0  0  0  0  0  0  0  0  0  0
   19.1114   20.0074   22.5398 H   0  0  0  0  0  0  0  0  0  0  0  0
   20.2241   20.4040   21.2287 H   0  0  0  0  0  0  0  0  0  0  0  0
   18.6272   19.0491   20.6512 C   0  0  0  0  0  0  0  0  0  0  0  0
   18.0146   18.2485   21.0864 H   0  0  0  0  0  0  0  0  0  0  0  0
   17.9531   19.8505   20.3216 H   0  0  0  0  0  0  0  0  0  0  0  0
   19.1363   18.6483   19.7648 H   0  0  0  0  0  0  0  0  0  0  0  0
  1  2  1  0  0  0  0
  1  3  2  0  0  0  0
  1  4  1  0  0  0  0
  4  5  1  0  0  0  0
  4  6  1  0  0  0  0
  4  7  1  0  0  0  0
  7  8  1  0  0  0  0
  7  9  1  0  0  0  0
  7 10  1  0  0  0  0
 10 11  1  0  0  0  0
 10 12  1  0  0  0  0
 10 13  1  0  0  0  0
M  END
> <VConfSearch Rank>
909

> <Conf_Id>
0

> <Delta U+W>
0.000

> <U+W>
-58.332

> <U>
8.390

> <W>
-66.722

> <W(PB)>
-68.455

> <W(SA)>
1.733

> <Valence>
6.333

> <Coulomb>
1.215

> <VdW>
0.842

> <VdW6>
-3.344

> <VdW12>
4.186

> <Bond>
0.091

> <Angle>
2.713

> <Pdih>
3.529

> <Idih>
0.000

> <Tether>
0.000

$$$$
VeraChem MOL file


 13 12  0  0  0  0  0  0  0  0999 V2000     
   20.3253   21.0175   22.4916 C   0  0  0  0  0  0  0  0  0  0  0  0
   21.4810   21.3161   22.7168 O   0  5  0  0  0  0  0  0  0  0  0  0
   19.3759   21.5792   23.0000 O   0  0  0  0  0  0  0  0  0  0  0  0
   20.0522   19.8629   21.5336 C   0  0  0  0  0  0  0  0  0  0  0  0
   20.8463   19.8519   20.7771 H   0  0  0  0  0  0  0  0  0  0  0  0
   19.1103   20.0688   21.0106 H   0  0  0  0  0  0  0  0  0  0  0  0
   19.9766   18.4912   22.2466 C   0  0  0  0  0  0  0  0  0  0  0  0
   20.9212   18.3002   22.7749 H   0  0  0  0  0  0  0  0  0  0  0  0
   19.1848   18.5172   23.0083 H   0  0  0  0  0  0  0  0  0  0  0  0
   19.6998   17.3461   21.2518 C   0  0  0  0  0  0  0  0  0  0  0  0
   19.6498   16.3826   21.7755 H   0  0  0  0  0  0  0  0  0  0  0  0
   18.7448   17.4996   20.7322 H   0  0  0  0  0  0  0  0  0  0  0  0
   20.4945   17.2809   20.4970 H   0  0  0  0  0  0  0  0  0  0  0  0
  1  2  1  0  0  0  0
  1  3  2  0  0  0  0
  1  4  1  0  0  0  0
  4  5  1  0  0  0  0
  4  6  1  0  0  0  0
  4  7  1  0  0  0  0
  7  8  1  0  0  0  0
  7  9  1  0  0  0  0
  7 10  1  0  0  0  0
 10 11  1  0  0  0  0
 10 12  1  0  0  0  0
 10 13  1  0  0  0  0
M  END
> <VConfSearch Rank>
910

> <Conf_Id>
1

> <Delta U+W>
-1.339

> <U+W>
-59.672

> <U>
7.389

> <W>
-67.061

> <W(PB)>
-68.767

> <W(SA)>
1.707

> <Valence>
5.822

> <Coulomb>
1.255

> <VdW>
0.312

> <VdW6>
-3.061

> <VdW12>
3.372

> <Bond>
0.059

> <Angle>
2.241

> <Pdih>
3.522

> <Idih>
0.000

> <Tether>
0.000

$$$$
VeraChem MOL file


 13 12  0  0  0  0  0  0  0  0999 V2000     
   19.7796   18.4858   20.3061 C   0  0  0  0  0  0  0  0  0  0  0  0
   18.6665   18.0480   20.0933 O   0  5  0  0  0  0  0  0  0  0  0  0
   20.3639   19.2291   19.5432 O   0  0  0  0  0  0  0  0  0  0  0  0
   20.4936   18.0488   21.5828 C   0  0  0  0  0  0  0  0  0  0  0  0
   21.5654   18.2556   21.4745 H   0  0  0  0  0  0  0  0  0  0  0  0
   20.3874   16.9602   21.6606 H   0  0  0  0  0  0  0  0  0  0  0  0
   19.9494   18.7133   22.8734 C   0  0  0  0  0  0  0  0  0  0  0  0
   18.8677   18.5351   22.9508 H   0  0  0  0  0  0  0  0  0  0  0  0
   20.4115   18.2341   23.7473 H   0  0  0  0  0  0  0  0  0  0  0  0
   20.2326   20.2291   22.9215 C   0  0  0  0  0  0  0  0  0  0  0  0
   19.7470   20.7480   22.0844 H   0  0  0  0  0  0  0  0  0  0  0  0
   19.8527   20.6642   23.8550 H   0  0  0  0  0  0  0  0  0  0  0  0
   21.3108   20.4288   22.8678 H   0  0  0  0  0  0  0  0  0  0  0  0
  1  2  1  0  0  0  0
  1  3  2  0  0  0  0
  1  4  1  0  0  0  0
  4  5  1  0  0  0  0
  4  6  1  0  0  0  0
  4  7  1  0  0  0  0
  7  8  1  0  0  0  0
  7  9  1  0  0  0  0
  7 10  1  0  0  0  0
 10 11  1  0  0  0  0
 10 12  1  0  0  0  0
 10 13  1  0  0  0  0
M  END
> <VConfSearch Rank>
911

> <Conf_Id>
4

> <Delta U+W>
0.281

> <U+W>
-58.051

> <U>
9.781

> <W>
-67.832

> <W(PB)>
-69.535

> <W(SA)>
1.703

> <Valence>
6.123

> <Coulomb>
3.449

> <VdW>
0.209

> <VdW6>
-3.762

> <VdW12>
3.972

> <Bond>
0.078

> <Angle>
2.428

> <Pdih>
3.616

> <Idih>
0.002

> <Tether>
0.000

$$$$
VeraChem MOL file


 13 12  0  0  0  0  0  0  0  0999 V2000     
   18.3677   19.3026   22.1934 C   0  0  0  0  0  0  0  0  0  0  0  0
   18.0048   20.0879   21.3405 O   0  5  0  0  0  0  0  0  0  0  0  0
   17.6874   18.3736   22.5813 O   0  0  0  0  0  0  0  0  0  0  0  0
   19.7352   19.5127   22.8387 C   0  0  0  0  0  0  0  0  0  0  0  0
   19.5984   19.4440   23.9245 H   0  0  0  0  0  0  0  0  0  0  0  0
   20.0708   20.5352   22.6259 H   0  0  0  0  0  0  0  0  0  0  0  0
   20.8126   18.4927   22.3892 C   0  0  0  0  0  0  0  0  0  0  0  0
   21.7108   18.6215   23.0084 H   0  0  0  0  0  0  0  0  0  0  0  0
   20.4493   17.4710   22.5686 H   0  0  0  0  0  0  0  0  0  0  0  0
   21.1967   18.6557   20.9040 C   0  0  0  0  0  0  0  0  0  0  0  0
   21.5837   19.6641   20.7072 H   0  0  0  0  0  0  0  0  0  0  0  0
   21.9741   17.9329   20.6239 H   0  0  0  0  0  0  0  0  0  0  0  0
   20.3294   18.4893   20.2514 H   0  0  0  0  0  0  0  0  0  0  0  0
  1  2  1  0  0  0  0
  1  3  2  0  0  0  0
  1  4  1  0  0  0  0
  4  5  1  0  0  0  0
  4  6  1  0  0  0  0
  4  7  1  0  0  0  0
  7  8  1  0  0  0  0
  7  9  1  0  0  0  0
  7 10  1  0  0  0  0
 10 11  1  0  0  0  0
 10 12  1  0  0  0  0
 10 13  1  0  0  0  0
M  END
> <VConfSearch Rank>
912

> <Conf_Id>
36

> <Delta U+W>
0.272

> <U+W>
-58.060

> <U>
9.781

> <W>
-67.841

> <W(PB)>
-69.537

> <W(SA)>
1.696

> <Valence>
6.123

> <Coulomb>
3.449

> <VdW>
0.209

> <VdW6>
-3.762

> <VdW12>
3.972

> <Bond>
0.078

> <Angle>
2.428

> <Pdih>
3.616

> <Idih>
0.002

> <Tether>
0.000

$$$$
VeraChem MOL file


 13 12  0  0  0  0  0  0  0  0999 V2000     
   18.7780   18.8314   23.5442 C   0  0  0  0  0  0  0  0  0  0  0  0
   18.3135   17.7226   23.3652 O   0  5  0  0  0  0  0  0  0  0  0  0
   18.4964   19.5194   24.5045 O   0  0  0  0  0  0  0  0  0  0  0  0
   19.7648   19.4154   22.5312 C   0  0  0  0  0  0  0  0  0  0  0  0
   20.6866   19.6570   23.0736 H   0  0  0  0  0  0  0  0  0  0  0  0
   19.3454   20.3635   22.1743 H   0  0  0  0  0  0  0  0  0  0  0  0
   20.0943   18.5016   21.3219 C   0  0  0  0  0  0  0  0  0  0  0  0
   20.5117   17.5509   21.6820 H   0  0  0  0  0  0  0  0  0  0  0  0
   19.1688   18.2582   20.7815 H   0  0  0  0  0  0  0  0  0  0  0  0
   21.0938   19.1716   20.3576 C   0  0  0  0  0  0  0  0  0  0  0  0
   22.0401   19.3971   20.8667 H   0  0  0  0  0  0  0  0  0  0  0  0
   21.3145   18.5108   19.5092 H   0  0  0  0  0  0  0  0  0  0  0  0
   20.6864   20.1101   19.9591 H   0  0  0  0  0  0  0  0  0  0  0  0
  1  2  1  0  0  0  0
  1  3  2  0  0  0  0
  1  4  1  0  0  0  0
  4  5  1  0  0  0  0
  4  6  1  0  0  0  0
  4  7  1  0  0  0  0
  7  8  1  0  0  0  0
  7  9  1  0  0  0  0
  7 10  1  0  0  0  0
 10 11  1  0  0  0  0
 10 12  1  0  0  0  0
 10 13  1  0  0  0  0
M  END
> <VConfSearch Rank>
913

> <Conf_Id>
0

> <Delta U+W>
0.000

> <U+W>
-58.332

> <U>
8.390

> <W>
-66.722

> <W(PB)>
-68.455

> <W(SA)>
1.733

> <Valence>
6.333

> <Coulomb>
1.215

> <VdW>
0.842

> <VdW6>
-3.344

> <VdW12>
4.186

> <Bond>
0.091

> <Angle>
2.713

> <Pdih>
3.529

> <Idih>
0.000

> <Tether>
0.000

$$$$
VeraChem MOL file


 13 12  0  0  0  0  0  0  0  0999 V2000     
   20.1256   18.0263   23.6800 C   0  0  0  0  0  0  0  0  0  0  0  0
   19.3195   17.1360   23.8613 O   0  5  0  0  0  0  0  0  0  0  0  0
   20.6721   18.6304   24.5810 O   0  0  0  0  0  0  0  0  0  0  0  0
   20.4552   18.4196   22.2439 C   0  0  0  0  0  0  0  0  0  0  0  0
   20.3840   17.5210   21.6190 H   0  0  0  0  0  0  0  0  0  0  0  0
   21.4995   18.7534   22.2125 H   0  0  0  0  0  0  0  0  0  0  0  0
   19.5252   19.5271   21.6923 C   0  0  0  0  0  0  0  0  0  0  0  0
   18.4816   19.1857   21.7378 H   0  0  0  0  0  0  0  0  0  0  0  0
   19.5974   20.4183   22.3314 H   0  0  0  0  0  0  0  0  0  0  0  0
   19.8838   19.9016   20.2402 C   0  0  0  0  0  0  0  0  0  0  0  0
   19.2143   20.6875   19.8669 H   0  0  0  0  0  0  0  0  0  0  0  0
   20.9144   20.2746   20.1739 H   0  0  0  0  0  0  0  0  0  0  0  0
   19.7900   19.0325   19.5758 H   0  0  0  0  0  0  0  0  0  0  0  0
  1  2  1  0  0  0  0
  1  3  2  0  0  0  0
  1  4  1  0  0  0  0
  4  5  1  0  0  0  0
  4  6  1  0  0  0  0
  4  7  1  0  0  0  0
  7  8  1  0  0  0  0
  7  9  1  0  0  0  0
  7 10  1  0  0  0  0
 10 11  1  0  0  0  0
 10 12  1  0  0  0  0
 10 13  1  0  0  0  0
M  END
> <VConfSearch Rank>
914

> <Conf_Id>
1

> <Delta U+W>
-1.339

> <U+W>
-59.672

> <U>
7.389

> <W>
-67.061

> <W(PB)>
-68.767

> <W(SA)>
1.707

> <Valence>
5.822

> <Coulomb>
1.255

> <VdW>
0.312

> <VdW6>
-3.061

> <VdW12>
3.372

> <Bond>
0.059

> <Angle>
2.241

> <Pdih>
3.522

> <Idih>
0.000

> <Tether>
0.000

$$$$
VeraChem MOL file


 13 12  0  0  0  0  0  0  0  0999 V2000     
   18.9013   18.0441   22.9241 C   0  0  0  0  0  0  0  0  0  0  0  0
   19.2617   17.6132   24.0014 O   0  5  0  0  0  0  0  0  0  0  0  0
   17.7993   18.5157   22.7263 O   0  0  0  0  0  0  0  0  0  0  0  0
   19.8735   17.9541   21.7505 C   0  0  0  0  0  0  0  0  0  0  0  0
   19.3099   18.0747   20.8172 H   0  0  0  0  0  0  0  0  0  0  0  0
   20.2841   16.9373   21.7432 H   0  0  0  0  0  0  0  0  0  0  0  0
   21.0353   18.9788   21.8088 C   0  0  0  0  0  0  0  0  0  0  0  0
   21.5676   18.8773   22.7650 H   0  0  0  0  0  0  0  0  0  0  0  0
   21.7608   18.7458   21.0175 H   0  0  0  0  0  0  0  0  0  0  0  0
   20.5495   20.4327   21.6348 C   0  0  0  0  0  0  0  0  0  0  0  0
   19.8544   20.7152   22.4366 H   0  0  0  0  0  0  0  0  0  0  0  0
   21.3972   21.1296   21.6612 H   0  0  0  0  0  0  0  0  0  0  0  0
   20.0335   20.5617   20.6743 H   0  0  0  0  0  0  0  0  0  0  0  0
  1  2  1  0  0  0  0
  1  3  2  0  0  0  0
  1  4  1  0  0  0  0
  4  5  1  0  0  0  0
  4  6  1  0  0  0  0
  4  7  1  0  0  0  0
  7  8  1  0  0  0  0
  7  9  1  0  0  0  0
  7 10  1  0  0  0  0
 10 11  1  0  0  0  0
 10 12  1  0  0  0  0
 10 13  1  0  0  0  0
M  END
> <VConfSearch Rank>
915

> <Conf_Id>
4

> <Delta U+W>
0.281

> <U+W>
-58.051

> <U>
9.781

> <W>
-67.832

> <W(PB)>
-69.535

> <W(SA)>
1.703

> <Valence>
6.123

> <Coulomb>
3.449

> <VdW>
0.209

> <VdW6>
-3.762

> <VdW12>
3.972

> <Bond>
0.078

> <Angle>
2.428

> <Pdih>
3.616

> <Idih>
0.002

> <Tether>
0.000

$$$$
VeraChem MOL file


 13 12  0  0  0  0  0  0  0  0999 V2000     
   21.0890   17.5853   22.5920 C   0  0  0  0  0  0  0  0  0  0  0  0
   20.8006   17.3528   23.7490 O   0  5  0  0  0  0  0  0  0  0  0  0
   21.3393   16.7195   21.7773 O   0  0  0  0  0  0  0  0  0  0  0  0
   21.1772   19.0424   22.1448 C   0  0  0  0  0  0  0  0  0  0  0  0
   22.1213   19.1605   21.5997 H   0  0  0  0  0  0  0  0  0  0  0  0
   21.2436   19.6798   23.0350 H   0  0  0  0  0  0  0  0  0  0  0  0
   20.0015   19.5024   21.2452 C   0  0  0  0  0  0  0  0  0  0  0  0
   20.2208   20.5038   20.8504 H   0  0  0  0  0  0  0  0  0  0  0  0
   19.9180   18.8324   20.3780 H   0  0  0  0  0  0  0  0  0  0  0  0
   18.6586   19.5428   22.0035 C   0  0  0  0  0  0  0  0  0  0  0  0
   18.7133   20.2246   22.8623 H   0  0  0  0  0  0  0  0  0  0  0  0
   17.8525   19.8906   21.3445 H   0  0  0  0  0  0  0  0  0  0  0  0
   18.3852   18.5464   22.3753 H   0  0  0  0  0  0  0  0  0  0  0  0
  1  2  1  0  0  0  0
  1  3  2  0  0  0  0
  1  4  1  0  0  0  0
  4  5  1  0  0  0  0
  4  6  1  0  0  0  0
  4  7  1  0  0  0  0
  7  8  1  0  0  0  0
  7  9  1  0  0  0  0
  7 10  1  0  0  0  0
 10 11  1  0  0  0  0
 10 12  1  0  0  0  0
 10 13  1  0  0  0  0
M  END
> <VConfSearch Rank>
916

> <Conf_Id>
36

> <Delta U+W>
0.272

> <U+W>
-58.060

> <U>
9.781

> <W>
-67.841

> <W(PB)>
-69.537

> <W(SA)>
1.696

> <Valence>
6.123

> <Coulomb>
3.449

> <VdW>
0.209

> <VdW6>
-3.762

> <VdW12>
3.972

> <Bond>
0.078

> <Angle>
2.428

> <Pdih>
3.616

> <Idih>
0.002

> <Tether>
0.000

$$$$
VeraChem MOL file


 13 12  0  0  0  0  0  0  0  0999 V2000     
   20.2146   16.9808   21.1646 C   0  0  0  0  0  0  0  0  0  0  0  0
   21.0083   17.1251   20.2555 O   0  5  0  0  0  0  0  0  0  0  0  0
   19.7564   15.9005   21.4773 O   0  0  0  0  0  0  0  0  0  0  0  0
   19.7518   18.1962   21.9705 C   0  0  0  0  0  0  0  0  0  0  0  0
   19.9928   18.0028   23.0226 H   0  0  0  0  0  0  0  0  0  0  0  0
   18.6589   18.2423   21.8955 H   0  0  0  0  0  0  0  0  0  0  0  0
   20.3631   19.5538   21.5355 C   0  0  0  0  0  0  0  0  0  0  0  0
   21.4585   19.5045   21.6086 H   0  0  0  0  0  0  0  0  0  0  0  0
   20.1230   19.7442   20.4801 H   0  0  0  0  0  0  0  0  0  0  0  0
   19.8401   20.7174   22.4016 C   0  0  0  0  0  0  0  0  0  0  0  0
   20.0950   20.5658   23.4588 H   0  0  0  0  0  0  0  0  0  0  0  0
   20.2832   21.6687   22.0792 H   0  0  0  0  0  0  0  0  0  0  0  0
   18.7487   20.8074   22.3213 H   0  0  0  0  0  0  0  0  0  0  0  0
  1  2  1  0  0  0  0
  1  3  2  0  0  0  0
  1  4  1  0  0  0  0
  4  5  1  0  0  0  0
  4  6  1  0  0  0  0
  4  7  1  0  0  0  0
  7  8  1  0  0  0  0
  7  9  1  0  0  0  0
  7 10  1  0  0  0  0
 10 11  1  0  0  0  0
 10 12  1  0  0  0  0
 10 13  1  0  0  0  0
M  END
> <VConfSearch Rank>
917

> <Conf_Id>
0

> <Delta U+W>
0.000

> <U+W>
-58.332

> <U>
8.390

> <W>
-66.722

> <W(PB)>
-68.455

> <W(SA)>
1.733

> <Valence>
6.333

> <Coulomb>
1.215

> <VdW>
0.842

> <VdW6>
-3.344

> <VdW12>
4.186

> <Bond>
0.091

> <Angle>
2.713

> <Pdih>
3.529

> <Idih>
0.000

> <Tether>
0.000

$$$$
VeraChem MOL file


 13 12  0  0  0  0  0  0  0  0999 V2000     
   20.7160   17.1511   21.2268 C   0  0  0  0  0  0  0  0  0  0  0  0
   21.6775   17.1619   20.4847 O   0  5  0  0  0  0  0  0  0  0  0  0
   19.9259   16.2305   21.2881 O   0  0  0  0  0  0  0  0  0  0  0  0
   20.4773   18.3669   22.1158 C   0  0  0  0  0  0  0  0  0  0  0  0
   21.4528   18.7911   22.3832 H   0  0  0  0  0  0  0  0  0  0  0  0
   20.0084   18.0230   23.0458 H   0  0  0  0  0  0  0  0  0  0  0  0
   19.5947   19.4447   21.4412 C   0  0  0  0  0  0  0  0  0  0  0  0
   20.0691   19.7743   20.5062 H   0  0  0  0  0  0  0  0  0  0  0  0
   18.6244   19.0062   21.1691 H   0  0  0  0  0  0  0  0  0  0  0  0
   19.3725   20.6594   22.3646 C   0  0  0  0  0  0  0  0  0  0  0  0
   18.7451   21.4120   21.8693 H   0  0  0  0  0  0  0  0  0  0  0  0
   18.8718   20.3594   23.2945 H   0  0  0  0  0  0  0  0  0  0  0  0
   20.3275   21.1335   22.6266 H   0  0  0  0  0  0  0  0  0  0  0  0
  1  2  1  0  0  0  0
  1  3  2  0  0  0  0
  1  4  1  0  0  0  0
  4  5  1  0  0  0  0
  4  6  1  0  0  0  0
  4  7  1  0  0  0  0
  7  8  1  0  0  0  0
  7  9  1  0  0  0  0
  7 10  1  0  0  0  0
 10 11  1  0  0  0  0
 10 12  1  0  0  0  0
 10 13  1  0  0  0  0
M  END
> <VConfSearch Rank>
918

> <Conf_Id>
1

> <Delta U+W>
-1.339

> <U+W>
-59.672

> <U>
7.389

> <W>
-67.061

> <W(PB)>
-68.767

> <W(SA)>
1.707

> <Valence>
5.822

> <Coulomb>
1.255

> <VdW>
0.312

> <VdW6>
-3.061

> <VdW12>
3.372

> <Bond>
0.059

> <Angle>
2.241

> <Pdih>
3.522

> <Idih>
0.000

> <Tether>
0.000

$$$$
VeraChem MOL file


 13 12  0  0  0  0  0  0  0  0999 V2000     
   20.6198   17.5509   22.9761 C   0  0  0  0  0  0  0  0  0  0  0  0
   21.6929   17.6399   23.5389 O   0  5  0  0  0  0  0  0  0  0  0  0
   19.6389   17.0426   23.4815 O   0  0  0  0  0  0  0  0  0  0  0  0
   20.5110   18.0736   21.5459 C   0  0  0  0  0  0  0  0  0  0  0  0
   19.6156   17.6425   21.0813 H   0  0  0  0  0  0  0  0  0  0  0  0
   21.3734   17.6871   20.9899 H   0  0  0  0  0  0  0  0  0  0  0  0
   20.4776   19.6197   21.4361 C   0  0  0  0  0  0  0  0  0  0  0  0
   21.3575   20.0432   21.9404 H   0  0  0  0  0  0  0  0  0  0  0  0
   20.5513   19.9070   20.3784 H   0  0  0  0  0  0  0  0  0  0  0  0
   19.1917   20.2264   22.0347 C   0  0  0  0  0  0  0  0  0  0  0  0
   19.1076   19.9957   23.1050 H   0  0  0  0  0  0  0  0  0  0  0  0
   19.1910   21.3185   21.9232 H   0  0  0  0  0  0  0  0  0  0  0  0
   18.3000   19.8328   21.5294 H   0  0  0  0  0  0  0  0  0  0  0  0
  1  2  1  0  0  0  0
  1  3  2  0  0  0  0
  1  4  1  0  0  0  0
  4  5  1  0  0  0  0
  4  6  1  0  0  0  0
  4  7  1  0  0  0  0
  7  8  1  0  0  0  0
  7  9  1  0  0  0  0
  7 10  1  0  0  0  0
 10 11  1  0  0  0  0
 10 12  1  0  0  0  0
 10 13  1  0  0  0  0
M  END
> <VConfSearch Rank>
919

> <Conf_Id>
4

> <Delta U+W>
0.281

> <U+W>
-58.051

> <U>
9.781

> <W>
-67.832

> <W(PB)>
-69.535

> <W(SA)>
1.703

> <Valence>
6.123

> <Coulomb>
3.449

> <VdW>
0.209

> <VdW6>
-3.762

> <VdW12>
3.972

> <Bond>
0.078

> <Angle>
2.428

> <Pdih>
3.616

> <Idih>
0.002

> <Tether>
0.000

$$$$
VeraChem MOL file


 13 12  0  0  0  0  0  0  0  0999 V2000     
   18.8261   18.5354   20.8317 C   0  0  0  0  0  0  0  0  0  0  0  0
   19.3249   18.2184   19.7702 O   0  5  0  0  0  0  0  0  0  0  0  0
   17.8457   17.9915   21.2998 O   0  0  0  0  0  0  0  0  0  0  0  0
   19.4400   19.7014   21.6026 C   0  0  0  0  0  0  0  0  0  0  0  0
   18.6200   20.3681   21.8947 H   0  0  0  0  0  0  0  0  0  0  0  0
   20.0849   20.2715   20.9226 H   0  0  0  0  0  0  0  0  0  0  0  0
   20.2356   19.2792   22.8643 C   0  0  0  0  0  0  0  0  0  0  0  0
   20.5098   20.1775   23.4342 H   0  0  0  0  0  0  0  0  0  0  0  0
   19.5929   18.6739   23.5189 H   0  0  0  0  0  0  0  0  0  0  0  0
   21.5162   18.4915   22.5186 C   0  0  0  0  0  0  0  0  0  0  0  0
   22.1838   19.0873   21.8824 H   0  0  0  0  0  0  0  0  0  0  0  0
   22.0651   18.2255   23.4314 H   0  0  0  0  0  0  0  0  0  0  0  0
   21.2760   17.5620   21.9855 H   0  0  0  0  0  0  0  0  0  0  0  0
  1  2  1  0  0  0  0
  1  3  2  0  0  0  0
  1  4  1  0  0  0  0
  4  5  1  0  0  0  0
  4  6  1  0  0  0  0
  4  7  1  0  0  0  0
  7  8  1  0  0  0  0
  7  9  1  0  0  0  0
  7 10  1  0  0  0  0
 10 11  1  0  0  0  0
 10 12  1  0  0  0  0
 10 13  1  0  0  0  0
M  END
> <VConfSearch Rank>
920

> <Conf_Id>
36

> <Delta U+W>
0.272

> <U+W>
-58.060

> <U>
9.781

> <W>
-67.841

> <W(PB)>
-69.537

> <W(SA)>
1.696

> <Valence>
6.123

> <Coulomb>
3.449

> <VdW>
0.209

> <VdW6>
-3.762

> <VdW12>
3.972

> <Bond>
0.078

> <Angle>
2.428

> <Pdih>
3.616

> <Idih>
0.002

> <Tether>
0.000

$$$$
VeraChem MOL file


 13 12  0  0  0  0  0  0  0  0999 V2000     
   19.3719   18.0669   23.6242 C   0  0  0  0  0  0  0  0  0  0  0  0
   18.3158   17.5942   23.2520 O   0  5  0  0  0  0  0  0  0  0  0  0
   19.7893   17.9421   24.7577 O   0  0  0  0  0  0  0  0  0  0  0  0
   20.2375   18.8608   22.6438 C   0  0  0  0  0  0  0  0  0  0  0  0
   21.2196   18.3745   22.6058 H   0  0  0  0  0  0  0  0  0  0  0  0
   20.3902   19.8576   23.0745 H   0  0  0  0  0  0  0  0  0  0  0  0
   19.6644   18.9939   21.2086 C   0  0  0  0  0  0  0  0  0  0  0  0
   19.5094   17.9938   20.7800 H   0  0  0  0  0  0  0  0  0  0  0  0
   18.6790   19.4786   21.2493 H   0  0  0  0  0  0  0  0  0  0  0  0
   20.6023   19.8074   20.2941 C   0  0  0  0  0  0  0  0  0  0  0  0
   21.5858   19.3262   20.2120 H   0  0  0  0  0  0  0  0  0  0  0  0
   20.1805   19.8908   19.2840 H   0  0  0  0  0  0  0  0  0  0  0  0
   20.7487   20.8229   20.6851 H   0  0  0  0  0  0  0  0  0  0  0  0
  1  2  1  0  0  0  0
  1  3  2  0  0  0  0
  1  4  1  0  0  0  0
  4  5  1  0  0  0  0
  4  6  1  0  0  0  0
  4  7  1  0  0  0  0
  7  8  1  0  0  0  0
  7  9  1  0  0  0  0
  7 10  1  0  0  0  0
 10 11  1  0  0  0  0
 10 12  1  0  0  0  0
 10 13  1  0  0  0  0
M  END
> <VConfSearch Rank>
921

> <Conf_Id>
0

> <Delta U+W>
0.000

> <U+W>
-58.332

> <U>
8.390

> <W>
-66.722

> <W(PB)>
-68.455

> <W(SA)>
1.733

> <Valence>
6.333

> <Coulomb>
1.215

> <VdW>
0.842

> <VdW6>
-3.344

> <VdW12>
4.186

> <Bond>
0.091

> <Angle>
2.713

> <Pdih>
3.529

> <Idih>
0.000

> <Tether>
0.000

$$$$
VeraChem MOL file


 13 12  0  0  0  0  0  0  0  0999 V2000     
   18.1007   18.5748   22.6547 C   0  0  0  0  0  0  0  0  0  0  0  0
   18.1114   17.9908   23.7197 O   0  5  0  0  0  0  0  0  0  0  0  0
   17.1749   18.5225   21.8701 O   0  0  0  0  0  0  0  0  0  0  0  0
   19.3232   19.4029   22.2737 C   0  0  0  0  0  0  0  0  0  0  0  0
   19.7572   19.8139   23.1934 H   0  0  0  0  0  0  0  0  0  0  0  0
   18.9849   20.2524   21.6681 H   0  0  0  0  0  0  0  0  0  0  0  0
   20.3879   18.5879   21.5004 C   0  0  0  0  0  0  0  0  0  0  0  0
   20.7119   17.7344   22.1123 H   0  0  0  0  0  0  0  0  0  0  0  0
   19.9395   18.1731   20.5867 H   0  0  0  0  0  0  0  0  0  0  0  0
   21.6097   19.4525   21.1304 C   0  0  0  0  0  0  0  0  0  0  0  0
   22.3528   18.8578   20.5831 H   0  0  0  0  0  0  0  0  0  0  0  0
   21.3150   20.2966   20.4930 H   0  0  0  0  0  0  0  0  0  0  0  0
   22.0934   19.8545   22.0303 H   0  0  0  0  0  0  0  0  0  0  0  0
  1  2  1  0  0  0  0
  1  3  2  0  0  0  0
  1  4  1  0  0  0  0
  4  5  1  0  0  0  0
  4  6  1  0  0  0  0
  4  7  1  0  0  0  0
  7  8  1  0  0  0  0
  7  9  1  0  0  0  0
  7 10  1  0  0  0  0
 10 11  1  0  0  0  0
 10 12  1  0  0  0  0
 10 13  1  0  0  0  0
M  END
> <VConfSearch Rank>
922

> <Conf_Id>
1

> <Delta U+W>
-1.339

> <U+W>
-59.672

> <U>
7.389

> <W>
-67.061

> <W(PB)>
-68.767

> <W(SA)>
1.707

> <Valence>
5.822

> <Coulomb>
1.255

> <VdW>
0.312

> <VdW6>
-3.061

> <VdW12>
3.372

> <Bond>
0.059

> <Angle>
2.241

> <Pdih>
3.522

> <Idih>
0.000

> <Tether>
0.000

$$$$
VeraChem MOL file


 13 12  0  0  0  0  0  0  0  0999 V2000     
   18.8648   20.2097   21.7150 C   0  0  0  0  0  0  0  0  0  0  0  0
   19.2634   21.3076   21.3807 O   0  5  0  0  0  0  0  0  0  0  0  0
   17.8743   19.6855   21.2460 O   0  0  0  0  0  0  0  0  0  0  0  0
   19.6304   19.4674   22.8075 C   0  0  0  0  0  0  0  0  0  0  0  0
   18.9875   18.6756   23.2112 H   0  0  0  0  0  0  0  0  0  0  0  0
   19.8073   20.1783   23.6235 H   0  0  0  0  0  0  0  0  0  0  0  0
   20.9831   18.8708   22.3411 C   0  0  0  0  0  0  0  0  0  0  0  0
   21.6029   19.6646   21.9010 H   0  0  0  0  0  0  0  0  0  0  0  0
   21.5299   18.4918   23.2153 H   0  0  0  0  0  0  0  0  0  0  0  0
   20.8037   17.7253   21.3235 C   0  0  0  0  0  0  0  0  0  0  0  0
   20.2984   18.0798   20.4152 H   0  0  0  0  0  0  0  0  0  0  0  0
   21.7776   17.3130   21.0294 H   0  0  0  0  0  0  0  0  0  0  0  0
   20.2050   16.9105   21.7513 H   0  0  0  0  0  0  0  0  0  0  0  0
  1  2  1  0  0  0  0
  1  3  2  0  0  0  0
  1  4  1  0  0  0  0
  4  5  1  0  0  0  0
  4  6  1  0  0  0  0
  4  7  1  0  0  0  0
  7  8  1  0  0  0  0
  7  9  1  0  0  0  0
  7 10  1  0  0  0  0
 10 11  1  0  0  0  0
 10 12  1  0  0  0  0
 10 13  1  0  0  0  0
M  END
> <VConfSearch Rank>
923

> <Conf_Id>
4

> <Delta U+W>
0.281

> <U+W>
-58.051

> <U>
9.781

> <W>
-67.832

> <W(PB)>
-69.535

> <W(SA)>
1.703

> <Valence>
6.123

> <Coulomb>
3.449

> <VdW>
0.209

> <VdW6>
-3.762

> <VdW12>
3.972

> <Bond>
0.078

> <Angle>
2.428

> <Pdih>
3.616

> <Idih>
0.002

> <Tether>
0.000

$$$$
VeraChem MOL file


 13 12  0  0  0  0  0  0  0  0999 V2000     
   21.4043   18.0161   22.8015 C   0  0  0  0  0  0  0  0  0  0  0  0
   21.3995   18.2507   23.9935 O   0  5  0  0  0  0  0  0  0  0  0  0
   21.6231   16.9152   22.3366 O   0  0  0  0  0  0  0  0  0  0  0  0
   21.1581   19.1708   21.8336 C   0  0  0  0  0  0  0  0  0  0  0  0
   21.9389   19.1254   21.0651 H   0  0  0  0  0  0  0  0  0  0  0  0
   21.2979   20.1164   22.3717 H   0  0  0  0  0  0  0  0  0  0  0  0
   19.7645   19.1438   21.1549 C   0  0  0  0  0  0  0  0  0  0  0  0
   19.7307   19.9134   20.3717 H   0  0  0  0  0  0  0  0  0  0  0  0
   19.6182   18.1766   20.6538 H   0  0  0  0  0  0  0  0  0  0  0  0
   18.6160   19.3916   22.1547 C   0  0  0  0  0  0  0  0  0  0  0  0
   18.7309   20.3641   22.6511 H   0  0  0  0  0  0  0  0  0  0  0  0
   17.6467   19.3857   21.6395 H   0  0  0  0  0  0  0  0  0  0  0  0
   18.5922   18.6135   22.9292 H   0  0  0  0  0  0  0  0  0  0  0  0
  1  2  1  0  0  0  0
  1  3  2  0  0  0  0
  1  4  1  0  0  0  0
  4  5  1  0  0  0  0
  4  6  1  0  0  0  0
  4  7  1  0  0  0  0
  7  8  1  0  0  0  0
  7  9  1  0  0  0  0
  7 10  1  0  0  0  0
 10 11  1  0  0  0  0
 10 12  1  0  0  0  0
 10 13  1  0  0  0  0
M  END
> <VConfSearch Rank>
924

> <Conf_Id>
36

> <Delta U+W>
0.272

> <U+W>
-58.060

> <U>
9.781

> <W>
-67.841

> <W(PB)>
-69.537

> <W(SA)>
1.696

> <Valence>
6.123

> <Coulomb>
3.449

> <VdW>
0.209

> <VdW6>
-3.762

> <VdW12>
3.972

> <Bond>
0.078

> <Angle>
2.428

> <Pdih>
3.616

> <Idih>
0.002

> <Tether>
0.000

$$$$
VeraChem MOL file


 13 12  0  0  0  0  0  0  0  0999 V2000     
   21.9795   18.1756   22.0145 C   0  0  0  0  0  0  0  0  0  0  0  0
   22.6513   19.1471   21.7277 O   0  5  0  0  0  0  0  0  0  0  0  0
   22.4625   17.1006   22.3075 O   0  0  0  0  0  0  0  0  0  0  0  0
   20.4531   18.2797   22.0153 C   0  0  0  0  0  0  0  0  0  0  0  0
   20.1060   17.9990   23.0168 H   0  0  0  0  0  0  0  0  0  0  0  0
   20.0726   17.5216   21.3204 H   0  0  0  0  0  0  0  0  0  0  0  0
   19.8817   19.6707   21.6352 C   0  0  0  0  0  0  0  0  0  0  0  0
   20.2666   20.4293   22.3310 H   0  0  0  0  0  0  0  0  0  0  0  0
   20.2332   19.9514   20.6324 H   0  0  0  0  0  0  0  0  0  0  0  0
   18.3400   19.6800   21.6628 C   0  0  0  0  0  0  0  0  0  0  0  0
   17.9635   19.4324   22.6641 H   0  0  0  0  0  0  0  0  0  0  0  0
   17.9545   20.6715   21.3914 H   0  0  0  0  0  0  0  0  0  0  0  0
   17.9298   18.9507   20.9519 H   0  0  0  0  0  0  0  0  0  0  0  0
  1  2  1  0  0  0  0
  1  3  2  0  0  0  0
  1  4  1  0  0  0  0
  4  5  1  0  0  0  0
  4  6  1  0  0  0  0
  4  7  1  0  0  0  0
  7  8  1  0  0  0  0
  7  9  1  0  0  0  0
  7 10  1  0  0  0  0
 10 11  1  0  0  0  0
 10 12  1  0  0  0  0
 10 13  1  0  0  0  0
M  END
> <VConfSearch Rank>
925

> <Conf_Id>
0

> <Delta U+W>
0.000

> <U+W>
-58.332

> <U>
8.390

> <W>
-66.722

> <W(PB)>
-68.455

> <W(SA)>
1.733

> <Valence>
6.333

> <Coulomb>
1.215

> <VdW>
0.842

> <VdW6>
-3.344

> <VdW12>
4.186

> <Bond>
0.091

> <Angle>
2.713

> <Pdih>
3.529

> <Idih>
0.000

> <Tether>
0.000

$$$$
VeraChem MOL file


 13 12  0  0  0  0  0  0  0  0999 V2000     
   21.8219   20.0586   21.5795 C   0  0  0  0  0  0  0  0  0  0  0  0
   22.0817   20.9040   22.4121 O   0  5  0  0  0  0  0  0  0  0  0  0
   22.2807   20.0612   20.4549 O   0  0  0  0  0  0  0  0  0  0  0  0
   20.8528   18.9446   21.9607 C   0  0  0  0  0  0  0  0  0  0  0  0
   20.9789   18.7333   23.0295 H   0  0  0  0  0  0  0  0  0  0  0  0
   21.1431   18.0382   21.4154 H   0  0  0  0  0  0  0  0  0  0  0  0
   19.3766   19.2983   21.6582 C   0  0  0  0  0  0  0  0  0  0  0  0
   19.1001   20.2127   22.2015 H   0  0  0  0  0  0  0  0  0  0  0  0
   19.2642   19.5175   20.5871 H   0  0  0  0  0  0  0  0  0  0  0  0
   18.4233   18.1531   22.0545 C   0  0  0  0  0  0  0  0  0  0  0  0
   17.3823   18.4222   21.8327 H   0  0  0  0  0  0  0  0  0  0  0  0
   18.6612   17.2349   21.5015 H   0  0  0  0  0  0  0  0  0  0  0  0
   18.4958   17.9355   23.1283 H   0  0  0  0  0  0  0  0  0  0  0  0
  1  2  1  0  0  0  0
  1  3  2  0  0  0  0
  1  4  1  0  0  0  0
  4  5  1  0  0  0  0
  4  6  1  0  0  0  0
  4  7  1  0  0  0  0
  7  8  1  0  0  0  0
  7  9  1  0  0  0  0
  7 10  1  0  0  0  0
 10 11  1  0  0  0  0
 10 12  1  0  0  0  0
 10 13  1  0  0  0  0
M  END
> <VConfSearch Rank>
926

> <Conf_Id>
1

> <Delta U+W>
-1.339

> <U+W>
-59.672

> <U>
7.389

> <W>
-67.061

> <W(PB)>
-68.767

> <W(SA)>
1.707

> <Valence>
5.822

> <Coulomb>
1.255

> <VdW>
0.312

> <VdW6>
-3.061

> <VdW12>
3.372

> <Bond>
0.059

> <Angle>
2.241

> <Pdih>
3.522

> <Idih>
0.000

> <Tether>
0.000

$$$$
VeraChem MOL file


 13 12  0  0  0  0  0  0  0  0999 V2000     
   20.1224   17.1891   21.7792 C   0  0  0  0  0  0  0  0  0  0  0  0
   20.9001   16.7516   20.9546 O   0  5  0  0  0  0  0  0  0  0  0  0
   19.9020   16.6487   22.8446 O   0  0  0  0  0  0  0  0  0  0  0  0
   19.3568   18.4659   21.4409 C   0  0  0  0  0  0  0  0  0  0  0  0
   18.4933   18.5463   22.1126 H   0  0  0  0  0  0  0  0  0  0  0  0
   18.9586   18.3492   20.4259 H   0  0  0  0  0  0  0  0  0  0  0  0
   20.2120   19.7569   21.5139 C   0  0  0  0  0  0  0  0  0  0  0  0
   21.0957   19.6495   20.8693 H   0  0  0  0  0  0  0  0  0  0  0  0
   19.6294   20.5976   21.1131 H   0  0  0  0  0  0  0  0  0  0  0  0
   20.6546   20.0913   22.9534 C   0  0  0  0  0  0  0  0  0  0  0  0
   21.2781   19.2896   23.3708 H   0  0  0  0  0  0  0  0  0  0  0  0
   21.2402   21.0196   22.9723 H   0  0  0  0  0  0  0  0  0  0  0  0
   19.7850   20.2248   23.6103 H   0  0  0  0  0  0  0  0  0  0  0  0
  1  2  1  0  0  0  0
  1  3  2  0  0  0  0
  1  4  1  0  0  0  0
  4  5  1  0  0  0  0
  4  6  1  0  0  0  0
  4  7  1  0  0  0  0
  7  8  1  0  0  0  0
  7  9  1  0  0  0  0
  7 10  1  0  0  0  0
 10 11  1  0  0  0  0
 10 12  1  0  0  0  0
 10 13  1  0  0  0  0
M  END
> <VConfSearch Rank>
927

> <Conf_Id>
4

> <Delta U+W>
0.281

> <U+W>
-58.051

> <U>
9.781

> <W>
-67.832

> <W(PB)>
-69.535

> <W(SA)>
1.703

> <Valence>
6.123

> <Coulomb>
3.449

> <VdW>
0.209

> <VdW6>
-3.762

> <VdW12>
3.972

> <Bond>
0.078

> <Angle>
2.428

> <Pdih>
3.616

> <Idih>
0.002

> <Tether>
0.000

$$$$
VeraChem MOL file


 13 12  0  0  0  0  0  0  0  0999 V2000     
   21.2051   19.2881   23.3839 C   0  0  0  0  0  0  0  0  0  0  0  0
   20.5706   19.7847   24.2931 O   0  5  0  0  0  0  0  0  0  0  0  0
   22.1030   18.4874   23.5531 O   0  0  0  0  0  0  0  0  0  0  0  0
   20.8833   19.7180   21.9548 C   0  0  0  0  0  0  0  0  0  0  0  0
   21.8338   19.9581   21.4636 H   0  0  0  0  0  0  0  0  0  0  0  0
   20.3014   20.6473   21.9900 H   0  0  0  0  0  0  0  0  0  0  0  0
   20.1299   18.6474   21.1244 C   0  0  0  0  0  0  0  0  0  0  0  0
   20.0746   18.9768   20.0779 H   0  0  0  0  0  0  0  0  0  0  0  0
   20.7011   17.7085   21.1302 H   0  0  0  0  0  0  0  0  0  0  0  0
   18.7015   18.3915   21.6482 C   0  0  0  0  0  0  0  0  0  0  0  0
   18.1058   19.3135   21.6300 H   0  0  0  0  0  0  0  0  0  0  0  0
   18.1900   17.6443   21.0275 H   0  0  0  0  0  0  0  0  0  0  0  0
   18.7208   18.0175   22.6805 H   0  0  0  0  0  0  0  0  0  0  0  0
  1  2  1  0  0  0  0
  1  3  2  0  0  0  0
  1  4  1  0  0  0  0
  4  5  1  0  0  0  0
  4  6  1  0  0  0  0
  4  7  1  0  0  0  0
  7  8  1  0  0  0  0
  7  9  1  0  0  0  0
  7 10  1  0  0  0  0
 10 11  1  0  0  0  0
 10 12  1  0  0  0  0
 10 13  1  0  0  0  0
M  END
> <VConfSearch Rank>
928

> <Conf_Id>
36

> <Delta U+W>
0.272

> <U+W>
-58.060

> <U>
9.781

> <W>
-67.841

> <W(PB)>
-69.537

> <W(SA)>
1.696

> <Valence>
6.123

> <Coulomb>
3.449

> <VdW>
0.209

> <VdW6>
-3.762

> <VdW12>
3.972

> <Bond>
0.078

> <Angle>
2.428

> <Pdih>
3.616

> <Idih>
0.002

> <Tether>
0.000

$$$$
VeraChem MOL file


 13 12  0  0  0  0  0  0  0  0999 V2000     
   19.0971   20.8325   21.2414 C   0  0  0  0  0  0  0  0  0  0  0  0
   18.3962   20.4396   20.3294 O   0  5  0  0  0  0  0  0  0  0  0  0
   19.1349   21.9942   21.5934 O   0  0  0  0  0  0  0  0  0  0  0  0
   19.9839   19.8430   21.9999 C   0  0  0  0  0  0  0  0  0  0  0  0
   19.7058   19.8992   23.0591 H   0  0  0  0  0  0  0  0  0  0  0  0
   21.0171   20.2015   21.9207 H   0  0  0  0  0  0  0  0  0  0  0  0
   19.9027   18.3717   21.5157 C   0  0  0  0  0  0  0  0  0  0  0  0
   18.8660   18.0153   21.5933 H   0  0  0  0  0  0  0  0  0  0  0  0
   20.1788   18.3181   20.4534 H   0  0  0  0  0  0  0  0  0  0  0  0
   20.8277   17.4503   22.3363 C   0  0  0  0  0  0  0  0  0  0  0  0
   20.5520   17.4623   23.3990 H   0  0  0  0  0  0  0  0  0  0  0  0
   20.7568   16.4145   21.9795 H   0  0  0  0  0  0  0  0  0  0  0  0
   21.8753   17.7675   22.2500 H   0  0  0  0  0  0  0  0  0  0  0  0
  1  2  1  0  0  0  0
  1  3  2  0  0  0  0
  1  4  1  0  0  0  0
  4  5  1  0  0  0  0
  4  6  1  0  0  0  0
  4  7  1  0  0  0  0
  7  8  1  0  0  0  0
  7  9  1  0  0  0  0
  7 10  1  0  0  0  0
 10 11  1  0  0  0  0
 10 12  1  0  0  0  0
 10 13  1  0  0  0  0
M  END
> <VConfSearch Rank>
929

> <Conf_Id>
0

> <Delta U+W>
0.000

> <U+W>
-58.332

> <U>
8.390

> <W>
-66.722

> <W(PB)>
-68.455

> <W(SA)>
1.733

> <Valence>
6.333

> <Coulomb>
1.215

> <VdW>
0.842

> <VdW6>
-3.344

> <VdW12>
4.186

> <Bond>
0.091

> <Angle>
2.713

> <Pdih>
3.529

> <Idih>
0.000

> <Tether>
0.000

$$$$
VeraChem MOL file


 13 12  0  0  0  0  0  0  0  0999 V2000     
   18.6238   19.5667   23.3543 C   0  0  0  0  0  0  0  0  0  0  0  0
   17.4753   19.7467   23.0023 O   0  5  0  0  0  0  0  0  0  0  0  0
   19.1041   20.0603   24.3548 O   0  0  0  0  0  0  0  0  0  0  0  0
   19.5162   18.6890   22.4832 C   0  0  0  0  0  0  0  0  0  0  0  0
   18.8890   17.9169   22.0210 H   0  0  0  0  0  0  0  0  0  0  0  0
   20.2322   18.1756   23.1364 H   0  0  0  0  0  0  0  0  0  0  0  0
   20.2688   19.4877   21.3917 C   0  0  0  0  0  0  0  0  0  0  0  0
   19.5423   20.0055   20.7499 H   0  0  0  0  0  0  0  0  0  0  0  0
   20.8858   20.2640   21.8655 H   0  0  0  0  0  0  0  0  0  0  0  0
   21.1611   18.5729   20.5291 C   0  0  0  0  0  0  0  0  0  0  0  0
   21.6860   19.1567   19.7617 H   0  0  0  0  0  0  0  0  0  0  0  0
   21.9159   18.0664   21.1451 H   0  0  0  0  0  0  0  0  0  0  0  0
   20.5620   17.8059   20.0208 H   0  0  0  0  0  0  0  0  0  0  0  0
  1  2  1  0  0  0  0
  1  3  2  0  0  0  0
  1  4  1  0  0  0  0
  4  5  1  0  0  0  0
  4  6  1  0  0  0  0
  4  7  1  0  0  0  0
  7  8  1  0  0  0  0
  7  9  1  0  0  0  0
  7 10  1  0  0  0  0
 10 11  1  0  0  0  0
 10 12  1  0  0  0  0
 10 13  1  0  0  0  0
M  END
> <VConfSearch Rank>
930

> <Conf_Id>
1

> <Delta U+W>
-1.339

> <U+W>
-59.672

> <U>
7.389

> <W>
-67.061

> <W(PB)>
-68.767

> <W(SA)>
1.707

> <Valence>
5.822

> <Coulomb>
1.255

> <VdW>
0.312

> <VdW6>
-3.061

> <VdW12>
3.372

> <Bond>
0.059

> <Angle>
2.241

> <Pdih>
3.522

> <Idih>
0.000

> <Tether>
0.000

$$$$
VeraChem MOL file


 13 12  0  0  0  0  0  0  0  0999 V2000     
   18.8212   17.7462   22.1325 C   0  0  0  0  0  0  0  0  0  0  0  0
   19.1815   16.5899   22.2285 O   0  5  0  0  0  0  0  0  0  0  0  0
   17.8907   18.2118   22.7596 O   0  0  0  0  0  0  0  0  0  0  0  0
   19.5554   18.6499   21.1450 C   0  0  0  0  0  0  0  0  0  0  0  0
   18.9311   19.5286   20.9417 H   0  0  0  0  0  0  0  0  0  0  0  0
   19.6437   18.0990   20.2010 H   0  0  0  0  0  0  0  0  0  0  0  0
   20.9640   19.0933   21.6168 C   0  0  0  0  0  0  0  0  0  0  0  0
   21.5673   18.2066   21.8572 H   0  0  0  0  0  0  0  0  0  0  0  0
   21.4745   19.6081   20.7915 H   0  0  0  0  0  0  0  0  0  0  0  0
   20.9086   20.0327   22.8392 C   0  0  0  0  0  0  0  0  0  0  0  0
   20.4428   19.5340   23.6995 H   0  0  0  0  0  0  0  0  0  0  0  0
   21.9192   20.3430   23.1348 H   0  0  0  0  0  0  0  0  0  0  0  0
   20.3281   20.9369   22.6133 H   0  0  0  0  0  0  0  0  0  0  0  0
  1  2  1  0  0  0  0
  1  3  2  0  0  0  0
  1  4  1  0  0  0  0
  4  5  1  0  0  0  0
  4  6  1  0  0  0  0
  4  7  1  0  0  0  0
  7  8  1  0  0  0  0
  7  9  1  0  0  0  0
  7 10  1  0  0  0  0
 10 11  1  0  0  0  0
 10 12  1  0  0  0  0
 10 13  1  0  0  0  0
M  END
> <VConfSearch Rank>
931

> <Conf_Id>
4

> <Delta U+W>
0.281

> <U+W>
-58.051

> <U>
9.781

> <W>
-67.832

> <W(PB)>
-69.535

> <W(SA)>
1.703

> <Valence>
6.123

> <Coulomb>
3.449

> <VdW>
0.209

> <VdW6>
-3.762

> <VdW12>
3.972

> <Bond>
0.078

> <Angle>
2.428

> <Pdih>
3.616

> <Idih>
0.002

> <Tether>
0.000

$$$$
VeraChem MOL file


 13 12  0  0  0  0  0  0  0  0999 V2000     
   20.4020   20.1032   23.3535 C   0  0  0  0  0  0  0  0  0  0  0  0
   20.2515   21.2452   22.9675 O   0  5  0  0  0  0  0  0  0  0  0  0
   20.0580   19.7171   24.4529 O   0  0  0  0  0  0  0  0  0  0  0  0
   21.0915   19.1078   22.4237 C   0  0  0  0  0  0  0  0  0  0  0  0
   21.8620   18.5927   23.0097 H   0  0  0  0  0  0  0  0  0  0  0  0
   21.6128   19.6656   21.6360 H   0  0  0  0  0  0  0  0  0  0  0  0
   20.1368   18.0611   21.7942 C   0  0  0  0  0  0  0  0  0  0  0  0
   20.7316   17.3022   21.2676 H   0  0  0  0  0  0  0  0  0  0  0  0
   19.5895   17.5369   22.5902 H   0  0  0  0  0  0  0  0  0  0  0  0
   19.1371   18.6940   20.8042 C   0  0  0  0  0  0  0  0  0  0  0  0
   19.6638   19.2048   19.9874 H   0  0  0  0  0  0  0  0  0  0  0  0
   18.4904   17.9246   20.3626 H   0  0  0  0  0  0  0  0  0  0  0  0
   18.4941   19.4280   21.3077 H   0  0  0  0  0  0  0  0  0  0  0  0
  1  2  1  0  0  0  0
  1  3  2  0  0  0  0
  1  4  1  0  0  0  0
  4  5  1  0  0  0  0
  4  6  1  0  0  0  0
  4  7  1  0  0  0  0
  7  8  1  0  0  0  0
  7  9  1  0  0  0  0
  7 10  1  0  0  0  0
 10 11  1  0  0  0  0
 10 12  1  0  0  0  0
 10 13  1  0  0  0  0
M  END
> <VConfSearch Rank>
932

> <Conf_Id>
36

> <Delta U+W>
0.272

> <U+W>
-58.060

> <U>
9.781

> <W>
-67.841

> <W(PB)>
-69.537

> <W(SA)>
1.696

> <Valence>
6.123

> <Coulomb>
3.449

> <VdW>
0.209

> <VdW6>
-3.762

> <VdW12>
3.972

> <Bond>
0.078

> <Angle>
2.428

> <Pdih>
3.616

> <Idih>
0.002

> <Tether>
0.000

$$$$
VeraChem MOL file


 13 12  0  0  0  0  0  0  0  0999 V2000     
   18.6987   20.1712   20.6271 C   0  0  0  0  0  0  0  0  0  0  0  0
   19.4869   20.6398   19.8293 O   0  5  0  0  0  0  0  0  0  0  0  0
   17.5091   20.4138   20.6020 O   0  0  0  0  0  0  0  0  0  0  0  0
   19.1971   19.2295   21.7251 C   0  0  0  0  0  0  0  0  0  0  0  0
   18.6475   18.2863   21.6223 H   0  0  0  0  0  0  0  0  0  0  0  0
   18.9064   19.6661   22.6881 H   0  0  0  0  0  0  0  0  0  0  0  0
   20.7226   18.9489   21.7179 C   0  0  0  0  0  0  0  0  0  0  0  0
   21.0122   18.5141   20.7510 H   0  0  0  0  0  0  0  0  0  0  0  0
   21.2715   19.8956   21.8181 H   0  0  0  0  0  0  0  0  0  0  0  0
   21.1311   17.9927   22.8567 C   0  0  0  0  0  0  0  0  0  0  0  0
   20.6186   17.0264   22.7612 H   0  0  0  0  0  0  0  0  0  0  0  0
   22.2128   17.8062   22.8354 H   0  0  0  0  0  0  0  0  0  0  0  0
   20.8799   18.4190   23.8368 H   0  0  0  0  0  0  0  0  0  0  0  0
  1  2  1  0  0  0  0
  1  3  2  0  0  0  0
  1  4  1  0  0  0  0
  4  5  1  0  0  0  0
  4  6  1  0  0  0  0
  4  7  1  0  0  0  0
  7  8  1  0  0  0  0
  7  9  1  0  0  0  0
  7 10  1  0  0  0  0
 10 11  1  0  0  0  0
 10 12  1  0  0  0  0
 10 13  1  0  0  0  0
M  END
> <VConfSearch Rank>
933

> <Conf_Id>
0

> <Delta U+W>
0.000

> <U+W>
-58.332

> <U>
8.390

> <W>
-66.722

> <W(PB)>
-68.455

> <W(SA)>
1.733

> <Valence>
6.333

> <Coulomb>
1.215

> <VdW>
0.842

> <VdW6>
-3.344

> <VdW12>
4.186

> <Bond>
0.091

> <Angle>
2.713

> <Pdih>
3.529

> <Idih>
0.000

> <Tether>
0.000

$$$$
VeraChem MOL file


 13 12  0  0  0  0  0  0  0  0999 V2000     
   18.2695   19.0352   23.0576 C   0  0  0  0  0  0  0  0  0  0  0  0
   17.4095   18.2279   22.7677 O   0  5  0  0  0  0  0  0  0  0  0  0
   18.0484   20.0602   23.6707 O   0  0  0  0  0  0  0  0  0  0  0  0
   19.7007   18.7562   22.6113 C   0  0  0  0  0  0  0  0  0  0  0  0
   19.8539   17.6701   22.6151 H   0  0  0  0  0  0  0  0  0  0  0  0
   20.3807   19.1811   23.3597 H   0  0  0  0  0  0  0  0  0  0  0  0
   20.0208   19.3344   21.2116 C   0  0  0  0  0  0  0  0  0  0  0  0
   19.3275   18.9094   20.4723 H   0  0  0  0  0  0  0  0  0  0  0  0
   19.8545   20.4207   21.2171 H   0  0  0  0  0  0  0  0  0  0  0  0
   21.4734   19.0356   20.7900 C   0  0  0  0  0  0  0  0  0  0  0  0
   21.6812   19.4530   19.7961 H   0  0  0  0  0  0  0  0  0  0  0  0
   22.1867   19.4766   21.4987 H   0  0  0  0  0  0  0  0  0  0  0  0
   21.6557   17.9537   20.7482 H   0  0  0  0  0  0  0  0  0  0  0  0
  1  2  1  0  0  0  0
  1  3  2  0  0  0  0
  1  4  1  0  0  0  0
  4  5  1  0  0  0  0
  4  6  1  0  0  0  0
  4  7  1  0  0  0  0
  7  8  1  0  0  0  0
  7  9  1  0  0  0  0
  7 10  1  0  0  0  0
 10 11  1  0  0  0  0
 10 12  1  0  0  0  0
 10 13  1  0  0  0  0
M  END
> <VConfSearch Rank>
934

> <Conf_Id>
1

> <Delta U+W>
-1.339

> <U+W>
-59.672

> <U>
7.389

> <W>
-67.061

> <W(PB)>
-68.767

> <W(SA)>
1.707

> <Valence>
5.822

> <Coulomb>
1.255

> <VdW>
0.312

> <VdW6>
-3.061

> <VdW12>
3.372

> <Bond>
0.059

> <Angle>
2.241

> <Pdih>
3.522

> <Idih>
0.000

> <Tether>
0.000

$$$$
VeraChem MOL file


 13 12  0  0  0  0  0  0  0  0999 V2000     
   20.4555   17.2153   21.8216 C   0  0  0  0  0  0  0  0  0  0  0  0
   20.4449   16.5653   22.8480 O   0  5  0  0  0  0  0  0  0  0  0  0
   19.9920   16.8166   20.7718 O   0  0  0  0  0  0  0  0  0  0  0  0
   21.1185   18.5903   21.8466 C   0  0  0  0  0  0  0  0  0  0  0  0
   21.3302   18.8971   20.8149 H   0  0  0  0  0  0  0  0  0  0  0  0
   22.0869   18.4773   22.3483 H   0  0  0  0  0  0  0  0  0  0  0  0
   20.2880   19.6822   22.5686 C   0  0  0  0  0  0  0  0  0  0  0  0
   20.0463   19.3471   23.5870 H   0  0  0  0  0  0  0  0  0  0  0  0
   20.8988   20.5896   22.6715 H   0  0  0  0  0  0  0  0  0  0  0  0
   18.9892   20.0321   21.8132 C   0  0  0  0  0  0  0  0  0  0  0  0
   18.3325   19.1559   21.7304 H   0  0  0  0  0  0  0  0  0  0  0  0
   18.4359   20.8206   22.3397 H   0  0  0  0  0  0  0  0  0  0  0  0
   19.2094   20.3908   20.7992 H   0  0  0  0  0  0  0  0  0  0  0  0
  1  2  1  0  0  0  0
  1  3  2  0  0  0  0
  1  4  1  0  0  0  0
  4  5  1  0  0  0  0
  4  6  1  0  0  0  0
  4  7  1  0  0  0  0
  7  8  1  0  0  0  0
  7  9  1  0  0  0  0
  7 10  1  0  0  0  0
 10 11  1  0  0  0  0
 10 12  1  0  0  0  0
 10 13  1  0  0  0  0
M  END
> <VConfSearch Rank>
935

> <Conf_Id>
4

> <Delta U+W>
0.281

> <U+W>
-58.051

> <U>
9.781

> <W>
-67.832

> <W(PB)>
-69.535

> <W(SA)>
1.703

> <Valence>
6.123

> <Coulomb>
3.449

> <VdW>
0.209

> <VdW6>
-3.762

> <VdW12>
3.972

> <Bond>
0.078

> <Angle>
2.428

> <Pdih>
3.616

> <Idih>
0.002

> <Tether>
0.000

$$$$
VeraChem MOL file


 13 12  0  0  0  0  0  0  0  0999 V2000     
   20.6347   17.8899   23.3311 C   0  0  0  0  0  0  0  0  0  0  0  0
   19.7960   17.8980   24.2100 O   0  5  0  0  0  0  0  0  0  0  0  0
   21.2527   16.8962   23.0045 O   0  0  0  0  0  0  0  0  0  0  0  0
   20.9563   19.2034   22.6226 C   0  0  0  0  0  0  0  0  0  0  0  0
   22.0478   19.3065   22.6045 H   0  0  0  0  0  0  0  0  0  0  0  0
   20.5698   20.0328   23.2276 H   0  0  0  0  0  0  0  0  0  0  0  0
   20.4057   19.2957   21.1764 C   0  0  0  0  0  0  0  0  0  0  0  0
   20.8078   20.1977   20.6951 H   0  0  0  0  0  0  0  0  0  0  0  0
   20.7653   18.4382   20.5905 H   0  0  0  0  0  0  0  0  0  0  0  0
   18.8644   19.3464   21.1335 C   0  0  0  0  0  0  0  0  0  0  0  0
   18.4844   20.2099   21.6951 H   0  0  0  0  0  0  0  0  0  0  0  0
   18.5087   19.4313   20.0984 H   0  0  0  0  0  0  0  0  0  0  0  0
   18.4274   18.4374   21.5677 H   0  0  0  0  0  0  0  0  0  0  0  0
  1  2  1  0  0  0  0
  1  3  2  0  0  0  0
  1  4  1  0  0  0  0
  4  5  1  0  0  0  0
  4  6  1  0  0  0  0
  4  7  1  0  0  0  0
  7  8  1  0  0  0  0
  7  9  1  0  0  0  0
  7 10  1  0  0  0  0
 10 11  1  0  0  0  0
 10 12  1  0  0  0  0
 10 13  1  0  0  0  0
M  END
> <VConfSearch Rank>
936

> <Conf_Id>
36

> <Delta U+W>
0.272

> <U+W>
-58.060

> <U>
9.781

> <W>
-67.841

> <W(PB)>
-69.537

> <W(SA)>
1.696

> <Valence>
6.123

> <Coulomb>
3.449

> <VdW>
0.209

> <VdW6>
-3.762

> <VdW12>
3.972

> <Bond>
0.078

> <Angle>
2.428

> <Pdih>
3.616

> <Idih>
0.002

> <Tether>
0.000

$$$$
VeraChem MOL file


 13 12  0  0  0  0  0  0  0  0999 V2000     
   18.0958   18.7198   22.6904 C   0  0  0  0  0  0  0  0  0  0  0  0
   17.4908   19.6380   22.1725 O   0  5  0  0  0  0  0  0  0  0  0  0
   17.5811   17.9461   23.4722 O   0  0  0  0  0  0  0  0  0  0  0  0
   19.5745   18.5027   22.3633 C   0  0  0  0  0  0  0  0  0  0  0  0
   19.6770   17.4844   21.9698 H   0  0  0  0  0  0  0  0  0  0  0  0
   20.1280   18.5377   23.3092 H   0  0  0  0  0  0  0  0  0  0  0  0
   20.1888   19.5145   21.3608 C   0  0  0  0  0  0  0  0  0  0  0  0
   19.6309   19.4800   20.4146 H   0  0  0  0  0  0  0  0  0  0  0  0
   20.0824   20.5346   21.7557 H   0  0  0  0  0  0  0  0  0  0  0  0
   21.6781   19.2178   21.0928 C   0  0  0  0  0  0  0  0  0  0  0  0
   21.8085   18.2138   20.6679 H   0  0  0  0  0  0  0  0  0  0  0  0
   22.0949   19.9433   20.3820 H   0  0  0  0  0  0  0  0  0  0  0  0
   22.2635   19.2768   22.0198 H   0  0  0  0  0  0  0  0  0  0  0  0
  1  2  1  0  0  0  0
  1  3  2  0  0  0  0
  1  4  1  0  0  0  0
  4  5  1  0  0  0  0
  4  6  1  0  0  0  0
  4  7  1  0  0  0  0
  7  8  1  0  0  0  0
  7  9  1  0  0  0  0
  7 10  1  0  0  0  0
 10 11  1  0  0  0  0
 10 12  1  0  0  0  0
 10 13  1  0  0  0  0
M  END
> <VConfSearch Rank>
937

> <Conf_Id>
0

> <Delta U+W>
0.000

> <U+W>
-58.332

> <U>
8.390

> <W>
-66.722

> <W(PB)>
-68.455

> <W(SA)>
1.733

> <Valence>
6.333

> <Coulomb>
1.215

> <VdW>
0.842

> <VdW6>
-3.344

> <VdW12>
4.186

> <Bond>
0.091

> <Angle>
2.713

> <Pdih>
3.529

> <Idih>
0.000

> <Tether>
0.000

$$$$
VeraChem MOL file


 13 12  0  0  0  0  0  0  0  0999 V2000     
   17.8997   19.0789   22.1350 C   0  0  0  0  0  0  0  0  0  0  0  0
   17.5147   18.7586   23.2416 O   0  5  0  0  0  0  0  0  0  0  0  0
   17.2138   18.9964   21.1359 O   0  0  0  0  0  0  0  0  0  0  0  0
   19.3274   19.5945   21.9892 C   0  0  0  0  0  0  0  0  0  0  0  0
   19.5925   20.1303   22.9089 H   0  0  0  0  0  0  0  0  0  0  0  0
   19.3444   20.3263   21.1724 H   0  0  0  0  0  0  0  0  0  0  0  0
   20.3520   18.4671   21.7155 C   0  0  0  0  0  0  0  0  0  0  0  0
   20.3192   17.7352   22.5347 H   0  0  0  0  0  0  0  0  0  0  0  0
   20.0711   17.9314   20.7979 H   0  0  0  0  0  0  0  0  0  0  0  0
   21.7841   19.0204   21.5735 C   0  0  0  0  0  0  0  0  0  0  0  0
   22.4956   18.2070   21.3800 H   0  0  0  0  0  0  0  0  0  0  0  0
   21.8491   19.7329   20.7406 H   0  0  0  0  0  0  0  0  0  0  0  0
   22.0991   19.5352   22.4908 H   0  0  0  0  0  0  0  0  0  0  0  0
  1  2  1  0  0  0  0
  1  3  2  0  0  0  0
  1  4  1  0  0  0  0
  4  5  1  0  0  0  0
  4  6  1  0  0  0  0
  4  7  1  0  0  0  0
  7  8  1  0  0  0  0
  7  9  1  0  0  0  0
  7 10  1  0  0  0  0
 10 11  1  0  0  0  0
 10 12  1  0  0  0  0
 10 13  1  0  0  0  0
M  END
> <VConfSearch Rank>
938

> <Conf_Id>
1

> <Delta U+W>
-1.339

> <U+W>
-59.672

> <U>
7.389

> <W>
-67.061

> <W(PB)>
-68.767

> <W(SA)>
1.707

> <Valence>
5.822

> <Coulomb>
1.255

> <VdW>
0.312

> <VdW6>
-3.061

> <VdW12>
3.372

> <Bond>
0.059

> <Angle>
2.241

> <Pdih>
3.522

> <Idih>
0.000

> <Tether>
0.000

$$$$
VeraChem MOL file


 13 12  0  0  0  0  0  0  0  0999 V2000     
   20.2080   18.0345   23.5244 C   0  0  0  0  0  0  0  0  0  0  0  0
   19.2620   17.3088   23.7579 O   0  5  0  0  0  0  0  0  0  0  0  0
   21.3609   17.7254   23.7509 O   0  0  0  0  0  0  0  0  0  0  0  0
   19.9278   19.4207   22.9495 C   0  0  0  0  0  0  0  0  0  0  0  0
   20.8153   20.0483   23.0971 H   0  0  0  0  0  0  0  0  0  0  0  0
   19.1227   19.8656   23.5464 H   0  0  0  0  0  0  0  0  0  0  0  0
   19.5193   19.4169   21.4541 C   0  0  0  0  0  0  0  0  0  0  0  0
   18.6552   18.7531   21.3106 H   0  0  0  0  0  0  0  0  0  0  0  0
   19.1930   20.4260   21.1675 H   0  0  0  0  0  0  0  0  0  0  0  0
   20.6726   18.9783   20.5281 C   0  0  0  0  0  0  0  0  0  0  0  0
   20.9953   17.9541   20.7577 H   0  0  0  0  0  0  0  0  0  0  0  0
   20.3566   19.0056   19.4771 H   0  0  0  0  0  0  0  0  0  0  0  0
   21.5396   19.6426   20.6395 H   0  0  0  0  0  0  0  0  0  0  0  0
  1  2  1  0  0  0  0
  1  3  2  0  0  0  0
  1  4  1  0  0  0  0
  4  5  1  0  0  0  0
  4  6  1  0  0  0  0
  4  7  1  0  0  0  0
  7  8  1  0  0  0  0
  7  9  1  0  0  0  0
  7 10  1  0  0  0  0
 10 11  1  0  0  0  0
 10 12  1  0  0  0  0
 10 13  1  0  0  0  0
M  END
> <VConfSearch Rank>
939

> <Conf_Id>
4

> <Delta U+W>
0.281

> <U+W>
-58.051

> <U>
9.781

> <W>
-67.832

> <W(PB)>
-69.535

> <W(SA)>
1.703

> <Valence>
6.123

> <Coulomb>
3.449

> <VdW>
0.209

> <VdW6>
-3.762

> <VdW12>
3.972

> <Bond>
0.078

> <Angle>
2.428

> <Pdih>
3.616

> <Idih>
0.002

> <Tether>
0.000

$$$$
VeraChem MOL file


 13 12  0  0  0  0  0  0  0  0999 V2000     
   18.6323   19.7567   21.3767 C   0  0  0  0  0  0  0  0  0  0  0  0
   18.0061   18.9687   20.6965 O   0  5  0  0  0  0  0  0  0  0  0  0
   18.1092   20.5655   22.1172 O   0  0  0  0  0  0  0  0  0  0  0  0
   20.1553   19.7570   21.2704 C   0  0  0  0  0  0  0  0  0  0  0  0
   20.4737   20.7980   21.1391 H   0  0  0  0  0  0  0  0  0  0  0  0
   20.4441   19.2200   20.3585 H   0  0  0  0  0  0  0  0  0  0  0  0
   20.8774   19.1482   22.4998 C   0  0  0  0  0  0  0  0  0  0  0  0
   21.9576   19.3254   22.4069 H   0  0  0  0  0  0  0  0  0  0  0  0
   20.5498   19.6659   23.4123 H   0  0  0  0  0  0  0  0  0  0  0  0
   20.6257   17.6328   22.6416 C   0  0  0  0  0  0  0  0  0  0  0  0
   20.9667   17.0931   21.7484 H   0  0  0  0  0  0  0  0  0  0  0  0
   21.1659   17.2304   23.5085 H   0  0  0  0  0  0  0  0  0  0  0  0
   19.5572   17.4215   22.7812 H   0  0  0  0  0  0  0  0  0  0  0  0
  1  2  1  0  0  0  0
  1  3  2  0  0  0  0
  1  4  1  0  0  0  0
  4  5  1  0  0  0  0
  4  6  1  0  0  0  0
  4  7  1  0  0  0  0
  7  8  1  0  0  0  0
  7  9  1  0  0  0  0
  7 10  1  0  0  0  0
 10 11  1  0  0  0  0
 10 12  1  0  0  0  0
 10 13  1  0  0  0  0
M  END
> <VConfSearch Rank>
940

> <Conf_Id>
36

> <Delta U+W>
0.272

> <U+W>
-58.060

> <U>
9.781

> <W>
-67.841

> <W(PB)>
-69.537

> <W(SA)>
1.696

> <Valence>
6.123

> <Coulomb>
3.449

> <VdW>
0.209

> <VdW6>
-3.762

> <VdW12>
3.972

> <Bond>
0.078

> <Angle>
2.428

> <Pdih>
3.616

> <Idih>
0.002

> <Tether>
0.000

$$$$
VeraChem MOL file


 13 12  0  0  0  0  0  0  0  0999 V2000     
   20.8441   20.6727   20.7828 C   0  0  0  0  0  0  0  0  0  0  0  0
   22.0250   20.5159   21.0241 O   0  5  0  0  0  0  0  0  0  0  0  0
   20.4227   21.5930   20.1118 O   0  0  0  0  0  0  0  0  0  0  0  0
   19.8168   19.6828   21.3356 C   0  0  0  0  0  0  0  0  0  0  0  0
   19.2650   19.2721   20.4817 H   0  0  0  0  0  0  0  0  0  0  0  0
   19.0992   20.2557   21.9349 H   0  0  0  0  0  0  0  0  0  0  0  0
   20.4009   18.5247   22.1862 C   0  0  0  0  0  0  0  0  0  0  0  0
   21.1219   17.9536   21.5847 H   0  0  0  0  0  0  0  0  0  0  0  0
   20.9559   18.9385   23.0397 H   0  0  0  0  0  0  0  0  0  0  0  0
   19.2946   17.5807   22.6990 C   0  0  0  0  0  0  0  0  0  0  0  0
   18.7445   17.1294   21.8629 H   0  0  0  0  0  0  0  0  0  0  0  0
   19.7267   16.7685   23.2981 H   0  0  0  0  0  0  0  0  0  0  0  0
   18.5771   18.1222   23.3295 H   0  0  0  0  0  0  0  0  0  0  0  0
  1  2  1  0  0  0  0
  1  3  2  0  0  0  0
  1  4  1  0  0  0  0
  4  5  1  0  0  0  0
  4  6  1  0  0  0  0
  4  7  1  0  0  0  0
  7  8  1  0  0  0  0
  7  9  1  0  0  0  0
  7 10  1  0  0  0  0
 10 11  1  0  0  0  0
 10 12  1  0  0  0  0
 10 13  1  0  0  0  0
M  END
> <VConfSearch Rank>
941

> <Conf_Id>
0

> <Delta U+W>
0.000

> <U+W>
-58.332

> <U>
8.390

> <W>
-66.722

> <W(PB)>
-68.455

> <W(SA)>
1.733

> <Valence>
6.333

> <Coulomb>
1.215

> <VdW>
0.842

> <VdW6>
-3.344

> <VdW12>
4.186

> <Bond>
0.091

> <Angle>
2.713

> <Pdih>
3.529

> <Idih>
0.000

> <Tether>
0.000

$$$$
VeraChem MOL file


 13 12  0  0  0  0  0  0  0  0999 V2000     
   18.0337   18.2992   22.1270 C   0  0  0  0  0  0  0  0  0  0  0  0
   17.5666   18.4529   23.2376 O   0  5  0  0  0  0  0  0  0  0  0  0
   17.6712   17.4288   21.3612 O   0  0  0  0  0  0  0  0  0  0  0  0
   19.1482   19.2377   21.6769 C   0  0  0  0  0  0  0  0  0  0  0  0
   18.9770   20.2174   22.1393 H   0  0  0  0  0  0  0  0  0  0  0  0
   19.0633   19.3729   20.5918 H   0  0  0  0  0  0  0  0  0  0  0  0
   20.5599   18.7169   22.0399 C   0  0  0  0  0  0  0  0  0  0  0  0
   20.6301   18.5758   23.1275 H   0  0  0  0  0  0  0  0  0  0  0  0
   20.7164   17.7312   21.5797 H   0  0  0  0  0  0  0  0  0  0  0  0
   21.6631   19.6871   21.5720 C   0  0  0  0  0  0  0  0  0  0  0  0
   22.6558   19.3011   21.8380 H   0  0  0  0  0  0  0  0  0  0  0  0
   21.6322   19.8211   20.4827 H   0  0  0  0  0  0  0  0  0  0  0  0
   21.5452   20.6722   22.0424 H   0  0  0  0  0  0  0  0  0  0  0  0
  1  2  1  0  0  0  0
  1  3  2  0  0  0  0
  1  4  1  0  0  0  0
  4  5  1  0  0  0  0
  4  6  1  0  0  0  0
  4  7  1  0  0  0  0
  7  8  1  0  0  0  0
  7  9  1  0  0  0  0
  7 10  1  0  0  0  0
 10 11  1  0  0  0  0
 10 12  1  0  0  0  0
 10 13  1  0  0  0  0
M  END
> <VConfSearch Rank>
942

> <Conf_Id>
1

> <Delta U+W>
-1.339

> <U+W>
-59.672

> <U>
7.389

> <W>
-67.061

> <W(PB)>
-68.767

> <W(SA)>
1.707

> <Valence>
5.822

> <Coulomb>
1.255

> <VdW>
0.312

> <VdW6>
-3.061

> <VdW12>
3.372

> <Bond>
0.059

> <Angle>
2.241

> <Pdih>
3.522

> <Idih>
0.000

> <Tether>
0.000

$$$$
VeraChem MOL file


 13 12  0  0  0  0  0  0  0  0999 V2000     
   18.5350   18.7312   21.2059 C   0  0  0  0  0  0  0  0  0  0  0  0
   17.6549   19.5006   21.5370 O   0  5  0  0  0  0  0  0  0  0  0  0
   18.7008   18.3555   20.0625 O   0  0  0  0  0  0  0  0  0  0  0  0
   19.4570   18.1813   22.2913 C   0  0  0  0  0  0  0  0  0  0  0  0
   19.9631   17.2887   21.9035 H   0  0  0  0  0  0  0  0  0  0  0  0
   18.8228   17.8498   23.1221 H   0  0  0  0  0  0  0  0  0  0  0  0
   20.5004   19.2016   22.8145 C   0  0  0  0  0  0  0  0  0  0  0  0
   19.9857   20.1083   23.1623 H   0  0  0  0  0  0  0  0  0  0  0  0
   21.0139   18.7757   23.6873 H   0  0  0  0  0  0  0  0  0  0  0  0
   21.5485   19.5749   21.7458 C   0  0  0  0  0  0  0  0  0  0  0  0
   21.0735   20.0454   20.8746 H   0  0  0  0  0  0  0  0  0  0  0  0
   22.2821   20.2822   22.1539 H   0  0  0  0  0  0  0  0  0  0  0  0
   22.0906   18.6849   21.4001 H   0  0  0  0  0  0  0  0  0  0  0  0
  1  2  1  0  0  0  0
  1  3  2  0  0  0  0
  1  4  1  0  0  0  0
  4  5  1  0  0  0  0
  4  6  1  0  0  0  0
  4  7  1  0  0  0  0
  7  8  1  0  0  0  0
  7  9  1  0  0  0  0
  7 10  1  0  0  0  0
 10 11  1  0  0  0  0
 10 12  1  0  0  0  0
 10 13  1  0  0  0  0
M  END
> <VConfSearch Rank>
943

> <Conf_Id>
4

> <Delta U+W>
0.281

> <U+W>
-58.051

> <U>
9.781

> <W>
-67.832

> <W(PB)>
-69.535

> <W(SA)>
1.703

> <Valence>
6.123

> <Coulomb>
3.449

> <VdW>
0.209

> <VdW6>
-3.762

> <VdW12>
3.972

> <Bond>
0.078

> <Angle>
2.428

> <Pdih>
3.616

> <Idih>
0.002

> <Tether>
0.000

$$$$
VeraChem MOL file


 13 12  0  0  0  0  0  0  0  0999 V2000     
   20.7680   19.4732   23.5878 C   0  0  0  0  0  0  0  0  0  0  0  0
   21.6629   18.7214   23.9192 O   0  5  0  0  0  0  0  0  0  0  0  0
   20.7843   20.6690   23.8019 O   0  0  0  0  0  0  0  0  0  0  0  0
   19.5412   18.8816   22.8981 C   0  0  0  0  0  0  0  0  0  0  0  0
   18.6555   19.2870   23.4018 H   0  0  0  0  0  0  0  0  0  0  0  0
   19.5324   17.7976   23.0656 H   0  0  0  0  0  0  0  0  0  0  0  0
   19.4568   19.1881   21.3808 C   0  0  0  0  0  0  0  0  0  0  0  0
   18.4798   18.8592   21.0010 H   0  0  0  0  0  0  0  0  0  0  0  0
   19.5080   20.2743   21.2216 H   0  0  0  0  0  0  0  0  0  0  0  0
   20.5716   18.4901   20.5746 C   0  0  0  0  0  0  0  0  0  0  0  0
   20.5247   17.4006   20.7020 H   0  0  0  0  0  0  0  0  0  0  0  0
   20.4714   18.7115   19.5041 H   0  0  0  0  0  0  0  0  0  0  0  0
   21.5644   18.8295   20.8985 H   0  0  0  0  0  0  0  0  0  0  0  0
  1  2  1  0  0  0  0
  1  3  2  0  0  0  0
  1  4  1  0  0  0  0
  4  5  1  0  0  0  0
  4  6  1  0  0  0  0
  4  7  1  0  0  0  0
  7  8  1  0  0  0  0
  7  9  1  0  0  0  0
  7 10  1  0  0  0  0
 10 11  1  0  0  0  0
 10 12  1  0  0  0  0
 10 13  1  0  0  0  0
M  END
> <VConfSearch Rank>
944

> <Conf_Id>
36

> <Delta U+W>
0.272

> <U+W>
-58.060

> <U>
9.781

> <W>
-67.841

> <W(PB)>
-69.537

> <W(SA)>
1.696

> <Valence>
6.123

> <Coulomb>
3.449

> <VdW>
0.209

> <VdW6>
-3.762

> <VdW12>
3.972

> <Bond>
0.078

> <Angle>
2.428

> <Pdih>
3.616

> <Idih>
0.002

> <Tether>
0.000

$$$$
VeraChem MOL file


 13 12  0  0  0  0  0  0  0  0999 V2000     
   19.5233   20.0501   20.0328 C   0  0  0  0  0  0  0  0  0  0  0  0
   20.6263   20.4303   19.6921 O   0  5  0  0  0  0  0  0  0  0  0  0
   18.5150   20.2954   19.4019 O   0  0  0  0  0  0  0  0  0  0  0  0
   19.3648   19.2231   21.3101 C   0  0  0  0  0  0  0  0  0  0  0  0
   18.8854   18.2773   21.0308 H   0  0  0  0  0  0  0  0  0  0  0  0
   18.6631   19.7575   21.9616 H   0  0  0  0  0  0  0  0  0  0  0  0
   20.6787   18.9348   22.0824 C   0  0  0  0  0  0  0  0  0  0  0  0
   21.3815   18.4018   21.4269 H   0  0  0  0  0  0  0  0  0  0  0  0
   21.1590   19.8838   22.3588 H   0  0  0  0  0  0  0  0  0  0  0  0
   20.4213   18.0979   23.3518 C   0  0  0  0  0  0  0  0  0  0  0  0
   19.9693   17.1297   23.0991 H   0  0  0  0  0  0  0  0  0  0  0  0
   21.3616   17.9043   23.8843 H   0  0  0  0  0  0  0  0  0  0  0  0
   19.7449   18.6237   24.0385 H   0  0  0  0  0  0  0  0  0  0  0  0
  1  2  1  0  0  0  0
  1  3  2  0  0  0  0
  1  4  1  0  0  0  0
  4  5  1  0  0  0  0
  4  6  1  0  0  0  0
  4  7  1  0  0  0  0
  7  8  1  0  0  0  0
  7  9  1  0  0  0  0
  7 10  1  0  0  0  0
 10 11  1  0  0  0  0
 10 12  1  0  0  0  0
 10 13  1  0  0  0  0
M  END
> <VConfSearch Rank>
945

> <Conf_Id>
0

> <Delta U+W>
0.000

> <U+W>
-58.332

> <U>
8.390

> <W>
-66.722

> <W(PB)>
-68.455

> <W(SA)>
1.733

> <Valence>
6.333

> <Coulomb>
1.215

> <VdW>
0.842

> <VdW6>
-3.344

> <VdW12>
4.186

> <Bond>
0.091

> <Angle>
2.713

> <Pdih>
3.529

> <Idih>
0.000

> <Tether>
0.000

$$$$
VeraChem MOL file


 13 12  0  0  0  0  0  0  0  0999 V2000     
   21.5244   20.2671   21.0591 C   0  0  0  0  0  0  0  0  0  0  0  0
   21.5123   21.4271   21.4190 O   0  5  0  0  0  0  0  0  0  0  0  0
   22.0397   19.8905   20.0257 O   0  0  0  0  0  0  0  0  0  0  0  0
   20.8392   19.2304   21.9431 C   0  0  0  0  0  0  0  0  0  0  0  0
   20.9447   19.5490   22.9874 H   0  0  0  0  0  0  0  0  0  0  0  0
   21.3797   18.2818   21.8384 H   0  0  0  0  0  0  0  0  0  0  0  0
   19.3441   19.0329   21.5949 C   0  0  0  0  0  0  0  0  0  0  0  0
   18.8151   19.9912   21.6937 H   0  0  0  0  0  0  0  0  0  0  0  0
   19.2501   18.7236   20.5445 H   0  0  0  0  0  0  0  0  0  0  0  0
   18.6810   17.9800   22.5054 C   0  0  0  0  0  0  0  0  0  0  0  0
   17.6223   17.8540   22.2435 H   0  0  0  0  0  0  0  0  0  0  0  0
   19.1743   17.0046   22.4017 H   0  0  0  0  0  0  0  0  0  0  0  0
   18.7359   18.2819   23.5596 H   0  0  0  0  0  0  0  0  0  0  0  0
  1  2  1  0  0  0  0
  1  3  2  0  0  0  0
  1  4  1  0  0  0  0
  4  5  1  0  0  0  0
  4  6  1  0  0  0  0
  4  7  1  0  0  0  0
  7  8  1  0  0  0  0
  7  9  1  0  0  0  0
  7 10  1  0  0  0  0
 10 11  1  0  0  0  0
 10 12  1  0  0  0  0
 10 13  1  0  0  0  0
M  END
> <VConfSearch Rank>
946

> <Conf_Id>
1

> <Delta U+W>
-1.339

> <U+W>
-59.672

> <U>
7.389

> <W>
-67.061

> <W(PB)>
-68.767

> <W(SA)>
1.707

> <Valence>
5.822

> <Coulomb>
1.255

> <VdW>
0.312

> <VdW6>
-3.061

> <VdW12>
3.372

> <Bond>
0.059

> <Angle>
2.241

> <Pdih>
3.522

> <Idih>
0.000

> <Tether>
0.000

$$$$
VeraChem MOL file


 13 12  0  0  0  0  0  0  0  0999 V2000     
   21.2128   20.2958   21.4831 C   0  0  0  0  0  0  0  0  0  0  0  0
   21.9116   20.7791   22.3515 O   0  5  0  0  0  0  0  0  0  0  0  0
   21.5991   20.0904   20.3497 O   0  0  0  0  0  0  0  0  0  0  0  0
   19.7630   19.9634   21.8270 C   0  0  0  0  0  0  0  0  0  0  0  0
   19.1977   19.8492   20.8939 H   0  0  0  0  0  0  0  0  0  0  0  0
   19.3428   20.8324   22.3474 H   0  0  0  0  0  0  0  0  0  0  0  0
   19.5939   18.7015   22.7115 C   0  0  0  0  0  0  0  0  0  0  0  0
   20.1967   18.8087   23.6242 H   0  0  0  0  0  0  0  0  0  0  0  0
   18.5461   18.6248   23.0325 H   0  0  0  0  0  0  0  0  0  0  0  0
   19.9911   17.4060   21.9740 C   0  0  0  0  0  0  0  0  0  0  0  0
   21.0479   17.4294   21.6765 H   0  0  0  0  0  0  0  0  0  0  0  0
   19.8411   16.5314   22.6202 H   0  0  0  0  0  0  0  0  0  0  0  0
   19.3846   17.2679   21.0693 H   0  0  0  0  0  0  0  0  0  0  0  0
  1  2  1  0  0  0  0
  1  3  2  0  0  0  0
  1  4  1  0  0  0  0
  4  5  1  0  0  0  0
  4  6  1  0  0  0  0
  4  7  1  0  0  0  0
  7  8  1  0  0  0  0
  7  9  1  0  0  0  0
  7 10  1  0  0  0  0
 10 11  1  0  0  0  0
 10 12  1  0  0  0  0
 10 13  1  0  0  0  0
M  END
> <VConfSearch Rank>
947

> <Conf_Id>
4

> <Delta U+W>
0.281

> <U+W>
-58.051

> <U>
9.781

> <W>
-67.832

> <W(PB)>
-69.535

> <W(SA)>
1.703

> <Valence>
6.123

> <Coulomb>
3.449

> <VdW>
0.209

> <VdW6>
-3.762

> <VdW12>
3.972

> <Bond>
0.078

> <Angle>
2.428

> <Pdih>
3.616

> <Idih>
0.002

> <Tether>
0.000

$$$$
VeraChem MOL file


 13 12  0  0  0  0  0  0  0  0999 V2000     
   21.5831   19.7661   22.6480 C   0  0  0  0  0  0  0  0  0  0  0  0
   22.5628   19.3700   22.0488 O   0  5  0  0  0  0  0  0  0  0  0  0
   21.4445   20.9145   23.0197 O   0  0  0  0  0  0  0  0  0  0  0  0
   20.4830   18.7624   22.9843 C   0  0  0  0  0  0  0  0  0  0  0  0
   20.2344   18.8927   24.0443 H   0  0  0  0  0  0  0  0  0  0  0  0
   20.8874   17.7485   22.8762 H   0  0  0  0  0  0  0  0  0  0  0  0
   19.1986   18.9188   22.1304 C   0  0  0  0  0  0  0  0  0  0  0  0
   18.4145   18.2654   22.5368 H   0  0  0  0  0  0  0  0  0  0  0  0
   18.8253   19.9492   22.2131 H   0  0  0  0  0  0  0  0  0  0  0  0
   19.4296   18.5658   20.6465 C   0  0  0  0  0  0  0  0  0  0  0  0
   19.7822   17.5316   20.5394 H   0  0  0  0  0  0  0  0  0  0  0  0
   18.4978   18.6678   20.0750 H   0  0  0  0  0  0  0  0  0  0  0  0
   20.1779   19.2304   20.1946 H   0  0  0  0  0  0  0  0  0  0  0  0
  1  2  1  0  0  0  0
  1  3  2  0  0  0  0
  1  4  1  0  0  0  0
  4  5  1  0  0  0  0
  4  6  1  0  0  0  0
  4  7  1  0  0  0  0
  7  8  1  0  0  0  0
  7  9  1  0  0  0  0
  7 10  1  0  0  0  0
 10 11  1  0  0  0  0
 10 12  1  0  0  0  0
 10 13  1  0  0  0  0
M  END
> <VConfSearch Rank>
948

> <Conf_Id>
36

> <Delta U+W>
0.272

> <U+W>
-58.060

> <U>
9.781

> <W>
-67.841

> <W(PB)>
-69.537

> <W(SA)>
1.696

> <Valence>
6.123

> <Coulomb>
3.449

> <VdW>
0.209

> <VdW6>
-3.762

> <VdW12>
3.972

> <Bond>
0.078

> <Angle>
2.428

> <Pdih>
3.616

> <Idih>
0.002

> <Tether>
0.000

$$$$
VeraChem MOL file


 13 12  0  0  0  0  0  0  0  0999 V2000     
   19.1490   17.8103   23.3594 C   0  0  0  0  0  0  0  0  0  0  0  0
   20.1173   17.1619   23.7049 O   0  5  0  0  0  0  0  0  0  0  0  0
   18.0527   17.6826   23.8659 O   0  0  0  0  0  0  0  0  0  0  0  0
   19.2851   18.8418   22.2378 C   0  0  0  0  0  0  0  0  0  0  0  0
   18.9698   19.8105   22.6435 H   0  0  0  0  0  0  0  0  0  0  0  0
   18.5652   18.5726   21.4558 H   0  0  0  0  0  0  0  0  0  0  0  0
   20.7027   18.9700   21.6213 C   0  0  0  0  0  0  0  0  0  0  0  0
   21.4230   19.2370   22.4071 H   0  0  0  0  0  0  0  0  0  0  0  0
   21.0179   17.9975   21.2180 H   0  0  0  0  0  0  0  0  0  0  0  0
   20.7433   20.0302   20.5023 C   0  0  0  0  0  0  0  0  0  0  0  0
   20.4618   21.0191   20.8875 H   0  0  0  0  0  0  0  0  0  0  0  0
   21.7532   20.1065   20.0787 H   0  0  0  0  0  0  0  0  0  0  0  0
   20.0534   19.7696   19.6889 H   0  0  0  0  0  0  0  0  0  0  0  0
  1  2  1  0  0  0  0
  1  3  2  0  0  0  0
  1  4  1  0  0  0  0
  4  5  1  0  0  0  0
  4  6  1  0  0  0  0
  4  7  1  0  0  0  0
  7  8  1  0  0  0  0
  7  9  1  0  0  0  0
  7 10  1  0  0  0  0
 10 11  1  0  0  0  0
 10 12  1  0  0  0  0
 10 13  1  0  0  0  0
M  END
> <VConfSearch Rank>
949

> <Conf_Id>
0

> <Delta U+W>
0.000

> <U+W>
-58.332

> <U>
8.390

> <W>
-66.722

> <W(PB)>
-68.455

> <W(SA)>
1.733

> <Valence>
6.333

> <Coulomb>
1.215

> <VdW>
0.842

> <VdW6>
-3.344

> <VdW12>
4.186

> <Bond>
0.091

> <Angle>
2.713

> <Pdih>
3.529

> <Idih>
0.000

> <Tether>
0.000

$$$$
VeraChem MOL file


 13 12  0  0  0  0  0  0  0  0999 V2000     
   20.9993   20.7618   22.5207 C   0  0  0  0  0  0  0  0  0  0  0  0
   21.8372   21.2242   21.7727 O   0  5  0  0  0  0  0  0  0  0  0  0
   21.0069   20.9309   23.7235 O   0  0  0  0  0  0  0  0  0  0  0  0
   19.8884   19.9074   21.9195 C   0  0  0  0  0  0  0  0  0  0  0  0
   19.6688   20.2901   20.9153 H   0  0  0  0  0  0  0  0  0  0  0  0
   18.9842   20.0483   22.5240 H   0  0  0  0  0  0  0  0  0  0  0  0
   20.2531   18.4047   21.8488 C   0  0  0  0  0  0  0  0  0  0  0  0
   21.1653   18.2768   21.2495 H   0  0  0  0  0  0  0  0  0  0  0  0
   20.4804   18.0349   22.8585 H   0  0  0  0  0  0  0  0  0  0  0  0
   19.1109   17.5691   21.2370 C   0  0  0  0  0  0  0  0  0  0  0  0
   19.3878   16.5076   21.1953 H   0  0  0  0  0  0  0  0  0  0  0  0
   18.1951   17.6573   21.8363 H   0  0  0  0  0  0  0  0  0  0  0  0
   18.8853   17.9010   20.2149 H   0  0  0  0  0  0  0  0  0  0  0  0
  1  2  1  0  0  0  0
  1  3  2  0  0  0  0
  1  4  1  0  0  0  0
  4  5  1  0  0  0  0
  4  6  1  0  0  0  0
  4  7  1  0  0  0  0
  7  8  1  0  0  0  0
  7  9  1  0  0  0  0
  7 10  1  0  0  0  0
 10 11  1  0  0  0  0
 10 12  1  0  0  0  0
 10 13  1  0  0  0  0
M  END
> <VConfSearch Rank>
950

> <Conf_Id>
1

> <Delta U+W>
-1.339

> <U+W>
-59.672

> <U>
7.389

> <W>
-67.061

> <W(PB)>
-68.767

> <W(SA)>
1.707

> <Valence>
5.822

> <Coulomb>
1.255

> <VdW>
0.312

> <VdW6>
-3.061

> <VdW12>
3.372

> <Bond>
0.059

> <Angle>
2.241

> <Pdih>
3.522

> <Idih>
0.000

> <Tether>
0.000

$$$$
VeraChem MOL file


 13 12  0  0  0  0  0  0  0  0999 V2000     
   18.7292   20.0421   21.6690 C   0  0  0  0  0  0  0  0  0  0  0  0
   18.8467   20.7953   20.7230 O   0  5  0  0  0  0  0  0  0  0  0  0
   17.6965   19.4619   21.9388 O   0  0  0  0  0  0  0  0  0  0  0  0
   19.9338   19.8441   22.5859 C   0  0  0  0  0  0  0  0  0  0  0  0
   19.5868   19.4158   23.5343 H   0  0  0  0  0  0  0  0  0  0  0  0
   20.3366   20.8377   22.8158 H   0  0  0  0  0  0  0  0  0  0  0  0
   21.0544   18.9610   21.9796 C   0  0  0  0  0  0  0  0  0  0  0  0
   21.3657   19.3758   21.0106 H   0  0  0  0  0  0  0  0  0  0  0  0
   21.9350   18.9963   22.6356 H   0  0  0  0  0  0  0  0  0  0  0  0
   20.6174   17.4923   21.8015 C   0  0  0  0  0  0  0  0  0  0  0  0
   19.7643   17.4149   21.1145 H   0  0  0  0  0  0  0  0  0  0  0  0
   21.4387   16.8916   21.3895 H   0  0  0  0  0  0  0  0  0  0  0  0
   20.3229   17.0511   22.7627 H   0  0  0  0  0  0  0  0  0  0  0  0
  1  2  1  0  0  0  0
  1  3  2  0  0  0  0
  1  4  1  0  0  0  0
  4  5  1  0  0  0  0
  4  6  1  0  0  0  0
  4  7  1  0  0  0  0
  7  8  1  0  0  0  0
  7  9  1  0  0  0  0
  7 10  1  0  0  0  0
 10 11  1  0  0  0  0
 10 12  1  0  0  0  0
 10 13  1  0  0  0  0
M  END
> <VConfSearch Rank>
951

> <Conf_Id>
4

> <Delta U+W>
0.281

> <U+W>
-58.051

> <U>
9.781

> <W>
-67.832

> <W(PB)>
-69.535

> <W(SA)>
1.703

> <Valence>
6.123

> <Coulomb>
3.449

> <VdW>
0.209

> <VdW6>
-3.762

> <VdW12>
3.972

> <Bond>
0.078

> <Angle>
2.428

> <Pdih>
3.616

> <Idih>
0.002

> <Tether>
0.000

$$$$
VeraChem MOL file


 13 12  0  0  0  0  0  0  0  0999 V2000     
   20.9333   19.9490   20.7389 C   0  0  0  0  0  0  0  0  0  0  0  0
   20.2775   19.9278   19.7165 O   0  5  0  0  0  0  0  0  0  0  0  0
   21.5282   20.9325   21.1326 O   0  0  0  0  0  0  0  0  0  0  0  0
   21.0466   18.6639   21.5552 C   0  0  0  0  0  0  0  0  0  0  0  0
   22.1081   18.5166   21.7875 H   0  0  0  0  0  0  0  0  0  0  0  0
   20.7400   17.8195   20.9257 H   0  0  0  0  0  0  0  0  0  0  0  0
   20.2274   18.6737   22.8713 C   0  0  0  0  0  0  0  0  0  0  0  0
   20.4841   17.7834   23.4616 H   0  0  0  0  0  0  0  0  0  0  0  0
   20.5128   19.5462   23.4756 H   0  0  0  0  0  0  0  0  0  0  0  0
   18.7055   18.6897   22.6193 C   0  0  0  0  0  0  0  0  0  0  0  0
   18.3952   17.8134   22.0352 H   0  0  0  0  0  0  0  0  0  0  0  0
   18.1559   18.6764   23.5695 H   0  0  0  0  0  0  0  0  0  0  0  0
   18.4062   19.5911   22.0682 H   0  0  0  0  0  0  0  0  0  0  0  0
  1  2  1  0  0  0  0
  1  3  2  0  0  0  0
  1  4  1  0  0  0  0
  4  5  1  0  0  0  0
  4  6  1  0  0  0  0
  4  7  1  0  0  0  0
  7  8  1  0  0  0  0
  7  9  1  0  0  0  0
  7 10  1  0  0  0  0
 10 11  1  0  0  0  0
 10 12  1  0  0  0  0
 10 13  1  0  0  0  0
M  END
> <VConfSearch Rank>
952

> <Conf_Id>
36

> <Delta U+W>
0.272

> <U+W>
-58.060

> <U>
9.781

> <W>
-67.841

> <W(PB)>
-69.537

> <W(SA)>
1.696

> <Valence>
6.123

> <Coulomb>
3.449

> <VdW>
0.209

> <VdW6>
-3.762

> <VdW12>
3.972

> <Bond>
0.078

> <Angle>
2.428

> <Pdih>
3.616

> <Idih>
0.002

> <Tether>
0.000

$$$$
VeraChem MOL file


 13 12  0  0  0  0  0  0  0  0999 V2000     
   21.5067   17.5331   21.3835 C   0  0  0  0  0  0  0  0  0  0  0  0
   21.5268   16.9277   22.4373 O   0  5  0  0  0  0  0  0  0  0  0  0
   22.2131   17.2415   20.4397 O   0  0  0  0  0  0  0  0  0  0  0  0
   20.5596   18.7216   21.2070 C   0  0  0  0  0  0  0  0  0  0  0  0
   19.9206   18.5058   20.3425 H   0  0  0  0  0  0  0  0  0  0  0  0
   21.1719   19.5922   20.9433 H   0  0  0  0  0  0  0  0  0  0  0  0
   19.6775   19.0569   22.4380 C   0  0  0  0  0  0  0  0  0  0  0  0
   19.0669   18.1822   22.7025 H   0  0  0  0  0  0  0  0  0  0  0  0
   20.3198   19.2699   23.3040 H   0  0  0  0  0  0  0  0  0  0  0  0
   18.7583   20.2651   22.1679 C   0  0  0  0  0  0  0  0  0  0  0  0
   18.0838   20.0650   21.3249 H   0  0  0  0  0  0  0  0  0  0  0  0
   18.1425   20.4870   23.0493 H   0  0  0  0  0  0  0  0  0  0  0  0
   19.3468   21.1614   21.9312 H   0  0  0  0  0  0  0  0  0  0  0  0
  1  2  1  0  0  0  0
  1  3  2  0  0  0  0
  1  4  1  0  0  0  0
  4  5  1  0  0  0  0
  4  6  1  0  0  0  0
  4  7  1  0  0  0  0
  7  8  1  0  0  0  0
  7  9  1  0  0  0  0
  7 10  1  0  0  0  0
 10 11  1  0  0  0  0
 10 12  1  0  0  0  0
 10 13  1  0  0  0  0
M  END
> <VConfSearch Rank>
953

> <Conf_Id>
0

> <Delta U+W>
0.000

> <U+W>
-58.332

> <U>
8.390

> <W>
-66.722

> <W(PB)>
-68.455

> <W(SA)>
1.733

> <Valence>
6.333

> <Coulomb>
1.215

> <VdW>
0.842

> <VdW6>
-3.344

> <VdW12>
4.186

> <Bond>
0.091

> <Angle>
2.713

> <Pdih>
3.529

> <Idih>
0.000

> <Tether>
0.000

$$$$
VeraChem MOL file


 13 12  0  0  0  0  0  0  0  0999 V2000     
   19.8024   17.1975   22.8478 C   0  0  0  0  0  0  0  0  0  0  0  0
   19.3123   17.2475   23.9581 O   0  5  0  0  0  0  0  0  0  0  0  0
   20.5438   16.3079   22.4811 O   0  0  0  0  0  0  0  0  0  0  0  0
   19.4849   18.3219   21.8679 C   0  0  0  0  0  0  0  0  0  0  0  0
   18.4673   18.6762   22.0729 H   0  0  0  0  0  0  0  0  0  0  0  0
   19.4828   17.9014   20.8548 H   0  0  0  0  0  0  0  0  0  0  0  0
   20.4862   19.4990   21.9539 C   0  0  0  0  0  0  0  0  0  0  0  0
   20.4871   19.9056   22.9749 H   0  0  0  0  0  0  0  0  0  0  0  0
   21.5027   19.1307   21.7565 H   0  0  0  0  0  0  0  0  0  0  0  0
   20.1380   20.6180   20.9519 C   0  0  0  0  0  0  0  0  0  0  0  0
   20.8584   21.4429   21.0277 H   0  0  0  0  0  0  0  0  0  0  0  0
   20.1601   20.2424   19.9204 H   0  0  0  0  0  0  0  0  0  0  0  0
   19.1366   21.0233   21.1482 H   0  0  0  0  0  0  0  0  0  0  0  0
  1  2  1  0  0  0  0
  1  3  2  0  0  0  0
  1  4  1  0  0  0  0
  4  5  1  0  0  0  0
  4  6  1  0  0  0  0
  4  7  1  0  0  0  0
  7  8  1  0  0  0  0
  7  9  1  0  0  0  0
  7 10  1  0  0  0  0
 10 11  1  0  0  0  0
 10 12  1  0  0  0  0
 10 13  1  0  0  0  0
M  END
> <VConfSearch Rank>
954

> <Conf_Id>
1

> <Delta U+W>
-1.339

> <U+W>
-59.672

> <U>
7.389

> <W>
-67.061

> <W(PB)>
-68.767

> <W(SA)>
1.707

> <Valence>
5.822

> <Coulomb>
1.255

> <VdW>
0.312

> <VdW6>
-3.061

> <VdW12>
3.372

> <Bond>
0.059

> <Angle>
2.241

> <Pdih>
3.522

> <Idih>
0.000

> <Tether>
0.000

$$$$
VeraChem MOL file


 13 12  0  0  0  0  0  0  0  0999 V2000     
   21.1383   19.0129   23.4743 C   0  0  0  0  0  0  0  0  0  0  0  0
   22.2280   19.5374   23.3578 O   0  5  0  0  0  0  0  0  0  0  0  0
   20.4289   19.1526   24.4505 O   0  0  0  0  0  0  0  0  0  0  0  0
   20.6533   18.1023   22.3490 C   0  0  0  0  0  0  0  0  0  0  0  0
   19.8401   17.4733   22.7317 H   0  0  0  0  0  0  0  0  0  0  0  0
   21.4804   17.4294   22.0932 H   0  0  0  0  0  0  0  0  0  0  0  0
   20.1906   18.8573   21.0765 C   0  0  0  0  0  0  0  0  0  0  0  0
   20.9978   19.5153   20.7254 H   0  0  0  0  0  0  0  0  0  0  0  0
   20.0046   18.1302   20.2742 H   0  0  0  0  0  0  0  0  0  0  0  0
   18.9101   19.6845   21.3136 C   0  0  0  0  0  0  0  0  0  0  0  0
   19.0732   20.4531   22.0807 H   0  0  0  0  0  0  0  0  0  0  0  0
   18.5992   20.1895   20.3898 H   0  0  0  0  0  0  0  0  0  0  0  0
   18.0835   19.0420   21.6442 H   0  0  0  0  0  0  0  0  0  0  0  0
  1  2  1  0  0  0  0
  1  3  2  0  0  0  0
  1  4  1  0  0  0  0
  4  5  1  0  0  0  0
  4  6  1  0  0  0  0
  4  7  1  0  0  0  0
  7  8  1  0  0  0  0
  7  9  1  0  0  0  0
  7 10  1  0  0  0  0
 10 11  1  0  0  0  0
 10 12  1  0  0  0  0
 10 13  1  0  0  0  0
M  END
> <VConfSearch Rank>
955

> <Conf_Id>
4

> <Delta U+W>
0.281

> <U+W>
-58.051

> <U>
9.781

> <W>
-67.832

> <W(PB)>
-69.535

> <W(SA)>
1.703

> <Valence>
6.123

> <Coulomb>
3.449

> <VdW>
0.209

> <VdW6>
-3.762

> <VdW12>
3.972

> <Bond>
0.078

> <Angle>
2.428

> <Pdih>
3.616

> <Idih>
0.002

> <Tether>
0.000

$$$$
VeraChem MOL file


 13 12  0  0  0  0  0  0  0  0999 V2000     
   20.4322   20.1511   20.6884 C   0  0  0  0  0  0  0  0  0  0  0  0
   19.5680   21.0049   20.6945 O   0  5  0  0  0  0  0  0  0  0  0  0
   21.6006   20.3825   20.4489 O   0  0  0  0  0  0  0  0  0  0  0  0
   20.0254   18.7049   20.9604 C   0  0  0  0  0  0  0  0  0  0  0  0
   20.4833   18.0843   20.1809 H   0  0  0  0  0  0  0  0  0  0  0  0
   18.9389   18.6165   20.8379 H   0  0  0  0  0  0  0  0  0  0  0  0
   20.4502   18.1778   22.3550 C   0  0  0  0  0  0  0  0  0  0  0  0
   20.2548   17.0979   22.4064 H   0  0  0  0  0  0  0  0  0  0  0  0
   21.5338   18.3090   22.4833 H   0  0  0  0  0  0  0  0  0  0  0  0
   19.7003   18.8808   23.5054 C   0  0  0  0  0  0  0  0  0  0  0  0
   18.6154   18.7431   23.4086 H   0  0  0  0  0  0  0  0  0  0  0  0
   20.0094   18.4713   24.4759 H   0  0  0  0  0  0  0  0  0  0  0  0
   19.9086   19.9590   23.5115 H   0  0  0  0  0  0  0  0  0  0  0  0
  1  2  1  0  0  0  0
  1  3  2  0  0  0  0
  1  4  1  0  0  0  0
  4  5  1  0  0  0  0
  4  6  1  0  0  0  0
  4  7  1  0  0  0  0
  7  8  1  0  0  0  0
  7  9  1  0  0  0  0
  7 10  1  0  0  0  0
 10 11  1  0  0  0  0
 10 12  1  0  0  0  0
 10 13  1  0  0  0  0
M  END
> <VConfSearch Rank>
956

> <Conf_Id>
36

> <Delta U+W>
0.272

> <U+W>
-58.060

> <U>
9.781

> <W>
-67.841

> <W(PB)>
-69.537

> <W(SA)>
1.696

> <Valence>
6.123

> <Coulomb>
3.449

> <VdW>
0.209

> <VdW6>
-3.762

> <VdW12>
3.972

> <Bond>
0.078

> <Angle>
2.428

> <Pdih>
3.616

> <Idih>
0.002

> <Tether>
0.000

$$$$
VeraChem MOL file


 13 12  0  0  0  0  0  0  0  0999 V2000     
   22.1278   18.7849   21.5579 C   0  0  0  0  0  0  0  0  0  0  0  0
   22.1509   17.8836   20.7427 O   0  5  0  0  0  0  0  0  0  0  0  0
   23.1333   19.3059   21.9965 O   0  0  0  0  0  0  0  0  0  0  0  0
   20.7866   19.3089   22.0748 C   0  0  0  0  0  0  0  0  0  0  0  0
   20.7493   20.3833   21.8588 H   0  0  0  0  0  0  0  0  0  0  0  0
   20.7914   19.2016   23.1660 H   0  0  0  0  0  0  0  0  0  0  0  0
   19.5306   18.6139   21.4870 C   0  0  0  0  0  0  0  0  0  0  0  0
   19.5293   18.7201   20.3931 H   0  0  0  0  0  0  0  0  0  0  0  0
   19.5714   17.5369   21.7019 H   0  0  0  0  0  0  0  0  0  0  0  0
   18.2293   19.2063   22.0644 C   0  0  0  0  0  0  0  0  0  0  0  0
   18.1497   20.2772   21.8357 H   0  0  0  0  0  0  0  0  0  0  0  0
   17.3524   18.7024   21.6373 H   0  0  0  0  0  0  0  0  0  0  0  0
   18.1923   19.0846   23.1550 H   0  0  0  0  0  0  0  0  0  0  0  0
  1  2  1  0  0  0  0
  1  3  2  0  0  0  0
  1  4  1  0  0  0  0
  4  5  1  0  0  0  0
  4  6  1  0  0  0  0
  4  7  1  0  0  0  0
  7  8  1  0  0  0  0
  7  9  1  0  0  0  0
  7 10  1  0  0  0  0
 10 11  1  0  0  0  0
 10 12  1  0  0  0  0
 10 13  1  0  0  0  0
M  END
> <VConfSearch Rank>
957

> <Conf_Id>
0

> <Delta U+W>
0.000

> <U+W>
-58.332

> <U>
8.390

> <W>
-66.722

> <W(PB)>
-68.455

> <W(SA)>
1.733

> <Valence>
6.333

> <Coulomb>
1.215

> <VdW>
0.842

> <VdW6>
-3.344

> <VdW12>
4.186

> <Bond>
0.091

> <Angle>
2.713

> <Pdih>
3.529

> <Idih>
0.000

> <Tether>
0.000

$$$$
VeraChem MOL file


 13 12  0  0  0  0  0  0  0  0999 V2000     
   20.0037   17.0154   22.4345 C   0  0  0  0  0  0  0  0  0  0  0  0
   19.3614   16.7505   23.4307 O   0  5  0  0  0  0  0  0  0  0  0  0
   20.9403   16.3485   22.0429 O   0  0  0  0  0  0  0  0  0  0  0  0
   19.6258   18.2630   21.6431 C   0  0  0  0  0  0  0  0  0  0  0  0
   18.5418   18.4066   21.7293 H   0  0  0  0  0  0  0  0  0  0  0  0
   19.8439   18.0751   20.5848 H   0  0  0  0  0  0  0  0  0  0  0  0
   20.3709   19.5318   22.1234 C   0  0  0  0  0  0  0  0  0  0  0  0
   20.1530   19.7045   23.1866 H   0  0  0  0  0  0  0  0  0  0  0  0
   21.4553   19.3730   22.0418 H   0  0  0  0  0  0  0  0  0  0  0  0
   19.9672   20.7743   21.3044 C   0  0  0  0  0  0  0  0  0  0  0  0
   20.5054   21.6629   21.6592 H   0  0  0  0  0  0  0  0  0  0  0  0
   20.2031   20.6373   20.2408 H   0  0  0  0  0  0  0  0  0  0  0  0
   18.8908   20.9713   21.3945 H   0  0  0  0  0  0  0  0  0  0  0  0
  1  2  1  0  0  0  0
  1  3  2  0  0  0  0
  1  4  1  0  0  0  0
  4  5  1  0  0  0  0
  4  6  1  0  0  0  0
  4  7  1  0  0  0  0
  7  8  1  0  0  0  0
  7  9  1  0  0  0  0
  7 10  1  0  0  0  0
 10 11  1  0  0  0  0
 10 12  1  0  0  0  0
 10 13  1  0  0  0  0
M  END
> <VConfSearch Rank>
958

> <Conf_Id>
1

> <Delta U+W>
-1.339

> <U+W>
-59.672

> <U>
7.389

> <W>
-67.061

> <W(PB)>
-68.767

> <W(SA)>
1.707

> <Valence>
5.822

> <Coulomb>
1.255

> <VdW>
0.312

> <VdW6>
-3.061

> <VdW12>
3.372

> <Bond>
0.059

> <Angle>
2.241

> <Pdih>
3.522

> <Idih>
0.000

> <Tether>
0.000

$$$$
VeraChem MOL file


 13 12  0  0  0  0  0  0  0  0999 V2000     
   19.5891   20.2836   23.0886 C   0  0  0  0  0  0  0  0  0  0  0  0
   20.3825   20.6237   23.9437 O   0  5  0  0  0  0  0  0  0  0  0  0
   18.8926   21.0654   22.4726 O   0  0  0  0  0  0  0  0  0  0  0  0
   19.4359   18.7923   22.8005 C   0  0  0  0  0  0  0  0  0  0  0  0
   18.4913   18.6329   22.2660 H   0  0  0  0  0  0  0  0  0  0  0  0
   19.3436   18.2805   23.7658 H   0  0  0  0  0  0  0  0  0  0  0  0
   20.6124   18.1762   22.0007 C   0  0  0  0  0  0  0  0  0  0  0  0
   21.5578   18.3774   22.5238 H   0  0  0  0  0  0  0  0  0  0  0  0
   20.4945   17.0844   21.9706 H   0  0  0  0  0  0  0  0  0  0  0  0
   20.6909   18.7145   20.5571 C   0  0  0  0  0  0  0  0  0  0  0  0
   20.8535   19.8005   20.5491 H   0  0  0  0  0  0  0  0  0  0  0  0
   21.5208   18.2445   20.0135 H   0  0  0  0  0  0  0  0  0  0  0  0
   19.7633   18.5041   20.0088 H   0  0  0  0  0  0  0  0  0  0  0  0
  1  2  1  0  0  0  0
  1  3  2  0  0  0  0
  1  4  1  0  0  0  0
  4  5  1  0  0  0  0
  4  6  1  0  0  0  0
  4  7  1  0  0  0  0
  7  8  1  0  0  0  0
  7  9  1  0  0  0  0
  7 10  1  0  0  0  0
 10 11  1  0  0  0  0
 10 12  1  0  0  0  0
 10 13  1  0  0  0  0
M  END
> <VConfSearch Rank>
959

> <Conf_Id>
4

> <Delta U+W>
0.281

> <U+W>
-58.051

> <U>
9.781

> <W>
-67.832

> <W(PB)>
-69.535

> <W(SA)>
1.703

> <Valence>
6.123

> <Coulomb>
3.449

> <VdW>
0.209

> <VdW6>
-3.762

> <VdW12>
3.972

> <Bond>
0.078

> <Angle>
2.428

> <Pdih>
3.616

> <Idih>
0.002

> <Tether>
0.000

$$$$
VeraChem MOL file


 13 12  0  0  0  0  0  0  0  0999 V2000     
   19.1504   17.4594   22.0247 C   0  0  0  0  0  0  0  0  0  0  0  0
   19.5026   16.7330   21.1169 O   0  5  0  0  0  0  0  0  0  0  0  0
   18.8310   17.0511   23.1236 O   0  0  0  0  0  0  0  0  0  0  0  0
   19.0697   18.9613   21.7629 C   0  0  0  0  0  0  0  0  0  0  0  0
   18.0975   19.3062   22.1346 H   0  0  0  0  0  0  0  0  0  0  0  0
   19.0722   19.1297   20.6789 H   0  0  0  0  0  0  0  0  0  0  0  0
   20.1995   19.7840   22.4336 C   0  0  0  0  0  0  0  0  0  0  0  0
   19.9804   20.8547   22.3214 H   0  0  0  0  0  0  0  0  0  0  0  0
   20.2146   19.5763   23.5128 H   0  0  0  0  0  0  0  0  0  0  0  0
   21.5863   19.4872   21.8264 C   0  0  0  0  0  0  0  0  0  0  0  0
   21.5996   19.7093   20.7513 H   0  0  0  0  0  0  0  0  0  0  0  0
   22.3591   20.0992   22.3094 H   0  0  0  0  0  0  0  0  0  0  0  0
   21.8581   18.4317   21.9605 H   0  0  0  0  0  0  0  0  0  0  0  0
  1  2  1  0  0  0  0
  1  3  2  0  0  0  0
  1  4  1  0  0  0  0
  4  5  1  0  0  0  0
  4  6  1  0  0  0  0
  4  7  1  0  0  0  0
  7  8  1  0  0  0  0
  7  9  1  0  0  0  0
  7 10  1  0  0  0  0
 10 11  1  0  0  0  0
 10 12  1  0  0  0  0
 10 13  1  0  0  0  0
M  END
> <VConfSearch Rank>
960

> <Conf_Id>
36

> <Delta U+W>
0.272

> <U+W>
-58.060

> <U>
9.781

> <W>
-67.841

> <W(PB)>
-69.537

> <W(SA)>
1.696

> <Valence>
6.123

> <Coulomb>
3.449

> <VdW>
0.209

> <VdW6>
-3.762

> <VdW12>
3.972

> <Bond>
0.078

> <Angle>
2.428

> <Pdih>
3.616

> <Idih>
0.002

> <Tether>
0.000

$$$$
VeraChem MOL file


 13 12  0  0  0  0  0  0  0  0999 V2000     
   20.3299   17.0615   22.6531 C   0  0  0  0  0  0  0  0  0  0  0  0
   19.1770   16.7121   22.8143 O   0  5  0  0  0  0  0  0  0  0  0  0
   21.2796   16.3633   22.9452 O   0  0  0  0  0  0  0  0  0  0  0  0
   20.6314   18.4382   22.0576 C   0  0  0  0  0  0  0  0  0  0  0  0
   21.2417   18.2806   21.1603 H   0  0  0  0  0  0  0  0  0  0  0  0
   21.2563   18.9777   22.7792 H   0  0  0  0  0  0  0  0  0  0  0  0
   19.3882   19.2942   21.7002 C   0  0  0  0  0  0  0  0  0  0  0  0
   18.7619   18.7505   20.9792 H   0  0  0  0  0  0  0  0  0  0  0  0
   18.7765   19.4484   22.6000 H   0  0  0  0  0  0  0  0  0  0  0  0
   19.7887   20.6606   21.1082 C   0  0  0  0  0  0  0  0  0  0  0  0
   20.3758   20.5338   20.1891 H   0  0  0  0  0  0  0  0  0  0  0  0
   18.8969   21.2515   20.8618 H   0  0  0  0  0  0  0  0  0  0  0  0
   20.3905   21.2373   21.8229 H   0  0  0  0  0  0  0  0  0  0  0  0
  1  2  1  0  0  0  0
  1  3  2  0  0  0  0
  1  4  1  0  0  0  0
  4  5  1  0  0  0  0
  4  6  1  0  0  0  0
  4  7  1  0  0  0  0
  7  8  1  0  0  0  0
  7  9  1  0  0  0  0
  7 10  1  0  0  0  0
 10 11  1  0  0  0  0
 10 12  1  0  0  0  0
 10 13  1  0  0  0  0
M  END
> <VConfSearch Rank>
961

> <Conf_Id>
0

> <Delta U+W>
0.000

> <U+W>
-58.332

> <U>
8.390

> <W>
-66.722

> <W(PB)>
-68.455

> <W(SA)>
1.733

> <Valence>
6.333

> <Coulomb>
1.215

> <VdW>
0.842

> <VdW6>
-3.344

> <VdW12>
4.186

> <Bond>
0.091

> <Angle>
2.713

> <Pdih>
3.529

> <Idih>
0.000

> <Tether>
0.000

$$$$
VeraChem MOL file


 13 12  0  0  0  0  0  0  0  0999 V2000     
   20.6475   18.3055   23.6997 C   0  0  0  0  0  0  0  0  0  0  0  0
   19.8131   18.2653   24.5815 O   0  5  0  0  0  0  0  0  0  0  0  0
   21.8421   18.3729   23.9089 O   0  0  0  0  0  0  0  0  0  0  0  0
   20.1685   18.2896   22.2520 C   0  0  0  0  0  0  0  0  0  0  0  0
   19.2529   17.6877   22.2020 H   0  0  0  0  0  0  0  0  0  0  0  0
   20.9261   17.7764   21.6474 H   0  0  0  0  0  0  0  0  0  0  0  0
   19.9060   19.7064   21.6869 C   0  0  0  0  0  0  0  0  0  0  0  0
   19.1532   20.2143   22.3059 H   0  0  0  0  0  0  0  0  0  0  0  0
   20.8268   20.3030   21.7510 H   0  0  0  0  0  0  0  0  0  0  0  0
   19.4234   19.6560   20.2234 C   0  0  0  0  0  0  0  0  0  0  0  0
   19.2428   20.6690   19.8406 H   0  0  0  0  0  0  0  0  0  0  0  0
   20.1733   19.1787   19.5788 H   0  0  0  0  0  0  0  0  0  0  0  0
   18.4868   19.0893   20.1379 H   0  0  0  0  0  0  0  0  0  0  0  0
  1  2  1  0  0  0  0
  1  3  2  0  0  0  0
  1  4  1  0  0  0  0
  4  5  1  0  0  0  0
  4  6  1  0  0  0  0
  4  7  1  0  0  0  0
  7  8  1  0  0  0  0
  7  9  1  0  0  0  0
  7 10  1  0  0  0  0
 10 11  1  0  0  0  0
 10 12  1  0  0  0  0
 10 13  1  0  0  0  0
M  END
> <VConfSearch Rank>
962

> <Conf_Id>
1

> <Delta U+W>
-1.339

> <U+W>
-59.672

> <U>
7.389

> <W>
-67.061

> <W(PB)>
-68.767

> <W(SA)>
1.707

> <Valence>
5.822

> <Coulomb>
1.255

> <VdW>
0.312

> <VdW6>
-3.061

> <VdW12>
3.372

> <Bond>
0.059

> <Angle>
2.241

> <Pdih>
3.522

> <Idih>
0.000

> <Tether>
0.000

$$$$
VeraChem MOL file


 13 12  0  0  0  0  0  0  0  0999 V2000     
   20.0728   17.2087   22.3346 C   0  0  0  0  0  0  0  0  0  0  0  0
   20.9916   16.5521   21.8867 O   0  5  0  0  0  0  0  0  0  0  0  0
   19.5866   17.0189   23.4317 O   0  0  0  0  0  0  0  0  0  0  0  0
   19.4762   18.3058   21.4564 C   0  0  0  0  0  0  0  0  0  0  0  0
   18.4887   18.5742   21.8516 H   0  0  0  0  0  0  0  0  0  0  0  0
   19.3127   17.8753   20.4613 H   0  0  0  0  0  0  0  0  0  0  0  0
   20.3631   19.5711   21.3314 C   0  0  0  0  0  0  0  0  0  0  0  0
   21.3626   19.2858   20.9742 H   0  0  0  0  0  0  0  0  0  0  0  0
   19.9344   20.2374   20.5704 H   0  0  0  0  0  0  0  0  0  0  0  0
   20.4857   20.3402   22.6631 C   0  0  0  0  0  0  0  0  0  0  0  0
   20.9526   19.7169   23.4372 H   0  0  0  0  0  0  0  0  0  0  0  0
   21.1025   21.2392   22.5353 H   0  0  0  0  0  0  0  0  0  0  0  0
   19.4986   20.6544   23.0270 H   0  0  0  0  0  0  0  0  0  0  0  0
  1  2  1  0  0  0  0
  1  3  2  0  0  0  0
  1  4  1  0  0  0  0
  4  5  1  0  0  0  0
  4  6  1  0  0  0  0
  4  7  1  0  0  0  0
  7  8  1  0  0  0  0
  7  9  1  0  0  0  0
  7 10  1  0  0  0  0
 10 11  1  0  0  0  0
 10 12  1  0  0  0  0
 10 13  1  0  0  0  0
M  END
> <VConfSearch Rank>
963

> <Conf_Id>
4

> <Delta U+W>
0.281

> <U+W>
-58.051

> <U>
9.781

> <W>
-67.832

> <W(PB)>
-69.535

> <W(SA)>
1.703

> <Valence>
6.123

> <Coulomb>
3.449

> <VdW>
0.209

> <VdW6>
-3.762

> <VdW12>
3.972

> <Bond>
0.078

> <Angle>
2.428

> <Pdih>
3.616

> <Idih>
0.002

> <Tether>
0.000

$$$$
VeraChem MOL file


 13 12  0  0  0  0  0  0  0  0999 V2000     
   20.6186   19.4921   20.3583 C   0  0  0  0  0  0  0  0  0  0  0  0
   19.7930   19.1295   19.5441 O   0  5  0  0  0  0  0  0  0  0  0  0
   21.1999   20.5570   20.2937 O   0  0  0  0  0  0  0  0  0  0  0  0
   20.9721   18.5467   21.5037 C   0  0  0  0  0  0  0  0  0  0  0  0
   22.0660   18.4959   21.5600 H   0  0  0  0  0  0  0  0  0  0  0  0
   20.6209   17.5392   21.2490 H   0  0  0  0  0  0  0  0  0  0  0  0
   20.4045   18.9778   22.8804 C   0  0  0  0  0  0  0  0  0  0  0  0
   20.8285   18.3331   23.6624 H   0  0  0  0  0  0  0  0  0  0  0  0
   20.7282   20.0034   23.1069 H   0  0  0  0  0  0  0  0  0  0  0  0
   18.8652   18.8928   22.9372 C   0  0  0  0  0  0  0  0  0  0  0  0
   18.5209   17.8700   22.7355 H   0  0  0  0  0  0  0  0  0  0  0  0
   18.4979   19.1853   23.9295 H   0  0  0  0  0  0  0  0  0  0  0  0
   18.4055   19.5603   22.1963 H   0  0  0  0  0  0  0  0  0  0  0  0
  1  2  1  0  0  0  0
  1  3  2  0  0  0  0
  1  4  1  0  0  0  0
  4  5  1  0  0  0  0
  4  6  1  0  0  0  0
  4  7  1  0  0  0  0
  7  8  1  0  0  0  0
  7  9  1  0  0  0  0
  7 10  1  0  0  0  0
 10 11  1  0  0  0  0
 10 12  1  0  0  0  0
 10 13  1  0  0  0  0
M  END
> <VConfSearch Rank>
964

> <Conf_Id>
36

> <Delta U+W>
0.272

> <U+W>
-58.060

> <U>
9.781

> <W>
-67.841

> <W(PB)>
-69.537

> <W(SA)>
1.696

> <Valence>
6.123

> <Coulomb>
3.449

> <VdW>
0.209

> <VdW6>
-3.762

> <VdW12>
3.972

> <Bond>
0.078

> <Angle>
2.428

> <Pdih>
3.616

> <Idih>
0.002

> <Tether>
0.000

$$$$
VeraChem MOL file


 13 12  0  0  0  0  0  0  0  0999 V2000     
   21.7769   18.1439   22.6787 C   0  0  0  0  0  0  0  0  0  0  0  0
   21.3247   17.7381   23.7314 O   0  5  0  0  0  0  0  0  0  0  0  0
   22.9422   18.0101   22.3642 O   0  0  0  0  0  0  0  0  0  0  0  0
   20.8620   18.8604   21.6836 C   0  0  0  0  0  0  0  0  0  0  0  0
   20.9101   18.3078   20.7377 H   0  0  0  0  0  0  0  0  0  0  0  0
   21.2924   19.8515   21.4976 H   0  0  0  0  0  0  0  0  0  0  0  0
   19.3832   19.0079   22.1279 C   0  0  0  0  0  0  0  0  0  0  0  0
   18.9546   18.0137   22.3166 H   0  0  0  0  0  0  0  0  0  0  0  0
   19.3375   19.5594   23.0774 H   0  0  0  0  0  0  0  0  0  0  0  0
   18.5396   19.7402   21.0649 C   0  0  0  0  0  0  0  0  0  0  0  0
   18.5439   19.1918   20.1137 H   0  0  0  0  0  0  0  0  0  0  0  0
   17.4974   19.8351   21.3967 H   0  0  0  0  0  0  0  0  0  0  0  0
   18.9298   20.7498   20.8807 H   0  0  0  0  0  0  0  0  0  0  0  0
  1  2  1  0  0  0  0
  1  3  2  0  0  0  0
  1  4  1  0  0  0  0
  4  5  1  0  0  0  0
  4  6  1  0  0  0  0
  4  7  1  0  0  0  0
  7  8  1  0  0  0  0
  7  9  1  0  0  0  0
  7 10  1  0  0  0  0
 10 11  1  0  0  0  0
 10 12  1  0  0  0  0
 10 13  1  0  0  0  0
M  END
> <VConfSearch Rank>
965

> <Conf_Id>
0

> <Delta U+W>
0.000

> <U+W>
-58.332

> <U>
8.390

> <W>
-66.722

> <W(PB)>
-68.455

> <W(SA)>
1.733

> <Valence>
6.333

> <Coulomb>
1.215

> <VdW>
0.842

> <VdW6>
-3.344

> <VdW12>
4.186

> <Bond>
0.091

> <Angle>
2.713

> <Pdih>
3.529

> <Idih>
0.000

> <Tether>
0.000

$$$$
VeraChem MOL file


 13 12  0  0  0  0  0  0  0  0999 V2000     
   20.9324   20.5368   22.9849 C   0  0  0  0  0  0  0  0  0  0  0  0
   21.4951   20.1591   23.9929 O   0  5  0  0  0  0  0  0  0  0  0  0
   20.5190   21.6685   22.8312 O   0  0  0  0  0  0  0  0  0  0  0  0
   20.7166   19.5309   21.8593 C   0  0  0  0  0  0  0  0  0  0  0  0
   21.5582   18.8275   21.8641 H   0  0  0  0  0  0  0  0  0  0  0  0
   20.7532   20.0722   20.9061 H   0  0  0  0  0  0  0  0  0  0  0  0
   19.3790   18.7621   21.9843 C   0  0  0  0  0  0  0  0  0  0  0  0
   19.3495   18.2320   22.9466 H   0  0  0  0  0  0  0  0  0  0  0  0
   18.5444   19.4770   21.9882 H   0  0  0  0  0  0  0  0  0  0  0  0
   19.1912   17.7541   20.8327 C   0  0  0  0  0  0  0  0  0  0  0  0
   18.2382   17.2193   20.9386 H   0  0  0  0  0  0  0  0  0  0  0  0
   19.1873   18.2646   19.8607 H   0  0  0  0  0  0  0  0  0  0  0  0
   19.9986   17.0101   20.8264 H   0  0  0  0  0  0  0  0  0  0  0  0
  1  2  1  0  0  0  0
  1  3  2  0  0  0  0
  1  4  1  0  0  0  0
  4  5  1  0  0  0  0
  4  6  1  0  0  0  0
  4  7  1  0  0  0  0
  7  8  1  0  0  0  0
  7  9  1  0  0  0  0
  7 10  1  0  0  0  0
 10 11  1  0  0  0  0
 10 12  1  0  0  0  0
 10 13  1  0  0  0  0
M  END
> <VConfSearch Rank>
966

> <Conf_Id>
1

> <Delta U+W>
-1.339

> <U+W>
-59.672

> <U>
7.389

> <W>
-67.061

> <W(PB)>
-68.767

> <W(SA)>
1.707

> <Valence>
5.822

> <Coulomb>
1.255

> <VdW>
0.312

> <VdW6>
-3.061

> <VdW12>
3.372

> <Bond>
0.059

> <Angle>
2.241

> <Pdih>
3.522

> <Idih>
0.000

> <Tether>
0.000

$$$$
VeraChem MOL file


 13 12  0  0  0  0  0  0  0  0999 V2000     
   21.0561   20.0601   23.0697 C   0  0  0  0  0  0  0  0  0  0  0  0
   21.0109   19.8073   24.2572 O   0  5  0  0  0  0  0  0  0  0  0  0
   22.0652   20.4266   22.5012 O   0  0  0  0  0  0  0  0  0  0  0  0
   19.7675   19.9449   22.2592 C   0  0  0  0  0  0  0  0  0  0  0  0
   19.8924   20.4980   21.3201 H   0  0  0  0  0  0  0  0  0  0  0  0
   18.9787   20.4551   22.8247 H   0  0  0  0  0  0  0  0  0  0  0  0
   19.3306   18.4867   21.9658 C   0  0  0  0  0  0  0  0  0  0  0  0
   19.2486   17.9303   22.9101 H   0  0  0  0  0  0  0  0  0  0  0  0
   18.3283   18.4948   21.5162 H   0  0  0  0  0  0  0  0  0  0  0  0
   20.3034   17.7588   21.0150 C   0  0  0  0  0  0  0  0  0  0  0  0
   21.3081   17.6928   21.4531 H   0  0  0  0  0  0  0  0  0  0  0  0
   19.9551   16.7376   20.8127 H   0  0  0  0  0  0  0  0  0  0  0  0
   20.3831   18.2868   20.0557 H   0  0  0  0  0  0  0  0  0  0  0  0
  1  2  1  0  0  0  0
  1  3  2  0  0  0  0
  1  4  1  0  0  0  0
  4  5  1  0  0  0  0
  4  6  1  0  0  0  0
  4  7  1  0  0  0  0
  7  8  1  0  0  0  0
  7  9  1  0  0  0  0
  7 10  1  0  0  0  0
 10 11  1  0  0  0  0
 10 12  1  0  0  0  0
 10 13  1  0  0  0  0
M  END
> <VConfSearch Rank>
967

> <Conf_Id>
4

> <Delta U+W>
0.281

> <U+W>
-58.051

> <U>
9.781

> <W>
-67.832

> <W(PB)>
-69.535

> <W(SA)>
1.703

> <Valence>
6.123

> <Coulomb>
3.449

> <VdW>
0.209

> <VdW6>
-3.762

> <VdW12>
3.972

> <Bond>
0.078

> <Angle>
2.428

> <Pdih>
3.616

> <Idih>
0.002

> <Tether>
0.000

$$$$
VeraChem MOL file


 13 12  0  0  0  0  0  0  0  0999 V2000     
   19.1754   17.7454   21.0859 C   0  0  0  0  0  0  0  0  0  0  0  0
   18.2764   17.3207   21.7839 O   0  5  0  0  0  0  0  0  0  0  0  0
   19.0609   17.9413   19.8923 O   0  0  0  0  0  0  0  0  0  0  0  0
   20.5318   18.0140   21.7331 C   0  0  0  0  0  0  0  0  0  0  0  0
   21.2949   17.5471   21.0989 H   0  0  0  0  0  0  0  0  0  0  0  0
   20.5670   17.5000   22.7015 H   0  0  0  0  0  0  0  0  0  0  0  0
   20.8617   19.5178   21.9145 C   0  0  0  0  0  0  0  0  0  0  0  0
   21.9053   19.6203   22.2422 H   0  0  0  0  0  0  0  0  0  0  0  0
   20.7831   20.0310   20.9458 H   0  0  0  0  0  0  0  0  0  0  0  0
   19.9405   20.2043   22.9440 C   0  0  0  0  0  0  0  0  0  0  0  0
   20.0204   19.7204   23.9263 H   0  0  0  0  0  0  0  0  0  0  0  0
   20.2130   21.2611   23.0629 H   0  0  0  0  0  0  0  0  0  0  0  0
   18.8905   20.1597   22.6257 H   0  0  0  0  0  0  0  0  0  0  0  0
  1  2  1  0  0  0  0
  1  3  2  0  0  0  0
  1  4  1  0  0  0  0
  4  5  1  0  0  0  0
  4  6  1  0  0  0  0
  4  7  1  0  0  0  0
  7  8  1  0  0  0  0
  7  9  1  0  0  0  0
  7 10  1  0  0  0  0
 10 11  1  0  0  0  0
 10 12  1  0  0  0  0
 10 13  1  0  0  0  0
M  END
> <VConfSearch Rank>
968

> <Conf_Id>
36

> <Delta U+W>
0.272

> <U+W>
-58.060

> <U>
9.781

> <W>
-67.841

> <W(PB)>
-69.537

> <W(SA)>
1.696

> <Valence>
6.123

> <Coulomb>
3.449

> <VdW>
0.209

> <VdW6>
-3.762

> <VdW12>
3.972

> <Bond>
0.078

> <Angle>
2.428

> <Pdih>
3.616

> <Idih>
0.002

> <Tether>
0.000

$$$$
VeraChem MOL file


 13 12  0  0  0  0  0  0  0  0999 V2000     
   21.0438   20.7872   21.2612 C   0  0  0  0  0  0  0  0  0  0  0  0
   20.8450   21.4665   22.2493 O   0  5  0  0  0  0  0  0  0  0  0  0
   21.6773   21.1825   20.3034 O   0  0  0  0  0  0  0  0  0  0  0  0
   20.4835   19.3654   21.1902 C   0  0  0  0  0  0  0  0  0  0  0  0
   21.3293   18.6877   21.0236 H   0  0  0  0  0  0  0  0  0  0  0  0
   19.8469   19.3081   20.2992 H   0  0  0  0  0  0  0  0  0  0  0  0
   19.6819   18.9041   22.4355 C   0  0  0  0  0  0  0  0  0  0  0  0
   20.3207   18.9650   23.3277 H   0  0  0  0  0  0  0  0  0  0  0  0
   18.8366   19.5862   22.6025 H   0  0  0  0  0  0  0  0  0  0  0  0
   19.1578   17.4630   22.2736 C   0  0  0  0  0  0  0  0  0  0  0  0
   19.9869   16.7565   22.1362 H   0  0  0  0  0  0  0  0  0  0  0  0
   18.5938   17.1546   23.1636 H   0  0  0  0  0  0  0  0  0  0  0  0
   18.4909   17.3826   21.4051 H   0  0  0  0  0  0  0  0  0  0  0  0
  1  2  1  0  0  0  0
  1  3  2  0  0  0  0
  1  4  1  0  0  0  0
  4  5  1  0  0  0  0
  4  6  1  0  0  0  0
  4  7  1  0  0  0  0
  7  8  1  0  0  0  0
  7  9  1  0  0  0  0
  7 10  1  0  0  0  0
 10 11  1  0  0  0  0
 10 12  1  0  0  0  0
 10 13  1  0  0  0  0
M  END
> <VConfSearch Rank>
969

> <Conf_Id>
0

> <Delta U+W>
0.000

> <U+W>
-58.332

> <U>
8.390

> <W>
-66.722

> <W(PB)>
-68.455

> <W(SA)>
1.733

> <Valence>
6.333

> <Coulomb>
1.215

> <VdW>
0.842

> <VdW6>
-3.344

> <VdW12>
4.186

> <Bond>
0.091

> <Angle>
2.713

> <Pdih>
3.529

> <Idih>
0.000

> <Tether>
0.000

$$$$
VeraChem MOL file


 13 12  0  0  0  0  0  0  0  0999 V2000     
   18.6719   18.3384   20.3378 C   0  0  0  0  0  0  0  0  0  0  0  0
   17.7096   17.7081   20.7276 O   0  5  0  0  0  0  0  0  0  0  0  0
   19.1403   18.2267   19.2227 O   0  0  0  0  0  0  0  0  0  0  0  0
   19.3394   19.3086   21.3067 C   0  0  0  0  0  0  0  0  0  0  0  0
   18.5654   19.7183   21.9670 H   0  0  0  0  0  0  0  0  0  0  0  0
   19.7452   20.1459   20.7260 H   0  0  0  0  0  0  0  0  0  0  0  0
   20.4607   18.6491   22.1454 C   0  0  0  0  0  0  0  0  0  0  0  0
   20.0448   17.8061   22.7149 H   0  0  0  0  0  0  0  0  0  0  0  0
   21.2250   18.2340   21.4736 H   0  0  0  0  0  0  0  0  0  0  0  0
   21.1147   19.6549   23.1139 C   0  0  0  0  0  0  0  0  0  0  0  0
   21.9064   19.1693   23.6992 H   0  0  0  0  0  0  0  0  0  0  0  0
   21.5643   20.4930   22.5652 H   0  0  0  0  0  0  0  0  0  0  0  0
   20.3751   20.0618   23.8160 H   0  0  0  0  0  0  0  0  0  0  0  0
  1  2  1  0  0  0  0
  1  3  2  0  0  0  0
  1  4  1  0  0  0  0
  4  5  1  0  0  0  0
  4  6  1  0  0  0  0
  4  7  1  0  0  0  0
  7  8  1  0  0  0  0
  7  9  1  0  0  0  0
  7 10  1  0  0  0  0
 10 11  1  0  0  0  0
 10 12  1  0  0  0  0
 10 13  1  0  0  0  0
M  END
> <VConfSearch Rank>
970

> <Conf_Id>
1

> <Delta U+W>
-1.339

> <U+W>
-59.672

> <U>
7.389

> <W>
-67.061

> <W(PB)>
-68.767

> <W(SA)>
1.707

> <Valence>
5.822

> <Coulomb>
1.255

> <VdW>
0.312

> <VdW6>
-3.061

> <VdW12>
3.372

> <Bond>
0.059

> <Angle>
2.241

> <Pdih>
3.522

> <Idih>
0.000

> <Tether>
0.000

$$$$
VeraChem MOL file


 13 12  0  0  0  0  0  0  0  0999 V2000     
   19.6470   17.9435   23.3874 C   0  0  0  0  0  0  0  0  0  0  0  0
   19.4926   16.7618   23.1511 O   0  5  0  0  0  0  0  0  0  0  0  0
   20.1723   18.3608   24.4002 O   0  0  0  0  0  0  0  0  0  0  0  0
   19.1203   18.9557   22.3731 C   0  0  0  0  0  0  0  0  0  0  0  0
   19.0430   19.9349   22.8615 H   0  0  0  0  0  0  0  0  0  0  0  0
   18.1003   18.6527   22.1082 H   0  0  0  0  0  0  0  0  0  0  0  0
   19.9758   19.0676   21.0851 C   0  0  0  0  0  0  0  0  0  0  0  0
   20.0814   18.0744   20.6264 H   0  0  0  0  0  0  0  0  0  0  0  0
   19.4480   19.6974   20.3561 H   0  0  0  0  0  0  0  0  0  0  0  0
   21.3711   19.6685   21.3535 C   0  0  0  0  0  0  0  0  0  0  0  0
   21.9453   19.0390   22.0462 H   0  0  0  0  0  0  0  0  0  0  0  0
   21.9424   19.7520   20.4199 H   0  0  0  0  0  0  0  0  0  0  0  0
   21.2886   20.6716   21.7921 H   0  0  0  0  0  0  0  0  0  0  0  0
  1  2  1  0  0  0  0
  1  3  2  0  0  0  0
  1  4  1  0  0  0  0
  4  5  1  0  0  0  0
  4  6  1  0  0  0  0
  4  7  1  0  0  0  0
  7  8  1  0  0  0  0
  7  9  1  0  0  0  0
  7 10  1  0  0  0  0
 10 11  1  0  0  0  0
 10 12  1  0  0  0  0
 10 13  1  0  0  0  0
M  END
> <VConfSearch Rank>
971

> <Conf_Id>
4

> <Delta U+W>
0.281

> <U+W>
-58.051

> <U>
9.781

> <W>
-67.832

> <W(PB)>
-69.535

> <W(SA)>
1.703

> <Valence>
6.123

> <Coulomb>
3.449

> <VdW>
0.209

> <VdW6>
-3.762

> <VdW12>
3.972

> <Bond>
0.078

> <Angle>
2.428

> <Pdih>
3.616

> <Idih>
0.002

> <Tether>
0.000

$$$$
VeraChem MOL file


 13 12  0  0  0  0  0  0  0  0999 V2000     
   18.9389   17.6785   21.5965 C   0  0  0  0  0  0  0  0  0  0  0  0
   18.1823   17.5132   22.5325 O   0  5  0  0  0  0  0  0  0  0  0  0
   18.5898   17.6171   20.4343 O   0  0  0  0  0  0  0  0  0  0  0  0
   20.4132   17.9418   21.8928 C   0  0  0  0  0  0  0  0  0  0  0  0
   21.0000   17.2704   21.2545 H   0  0  0  0  0  0  0  0  0  0  0  0
   20.6201   17.6531   22.9307 H   0  0  0  0  0  0  0  0  0  0  0  0
   20.8582   19.4063   21.6472 C   0  0  0  0  0  0  0  0  0  0  0  0
   21.9512   19.4704   21.7376 H   0  0  0  0  0  0  0  0  0  0  0  0
   20.6089   19.6986   20.6174 H   0  0  0  0  0  0  0  0  0  0  0  0
   20.2117   20.3942   22.6402 C   0  0  0  0  0  0  0  0  0  0  0  0
   20.4668   20.1331   23.6756 H   0  0  0  0  0  0  0  0  0  0  0  0
   20.5623   21.4173   22.4517 H   0  0  0  0  0  0  0  0  0  0  0  0
   19.1176   20.3890   22.5462 H   0  0  0  0  0  0  0  0  0  0  0  0
  1  2  1  0  0  0  0
  1  3  2  0  0  0  0
  1  4  1  0  0  0  0
  4  5  1  0  0  0  0
  4  6  1  0  0  0  0
  4  7  1  0  0  0  0
  7  8  1  0  0  0  0
  7  9  1  0  0  0  0
  7 10  1  0  0  0  0
 10 11  1  0  0  0  0
 10 12  1  0  0  0  0
 10 13  1  0  0  0  0
M  END
> <VConfSearch Rank>
972

> <Conf_Id>
36

> <Delta U+W>
0.272

> <U+W>
-58.060

> <U>
9.781

> <W>
-67.841

> <W(PB)>
-69.537

> <W(SA)>
1.696

> <Valence>
6.123

> <Coulomb>
3.449

> <VdW>
0.209

> <VdW6>
-3.762

> <VdW12>
3.972

> <Bond>
0.078

> <Angle>
2.428

> <Pdih>
3.616

> <Idih>
0.002

> <Tether>
0.000

$$$$
VeraChem MOL file


 13 12  0  0  0  0  0  0  0  0999 V2000     
   19.8458   16.8980   22.1287 C   0  0  0  0  0  0  0  0  0  0  0  0
   20.7167   16.4977   21.3814 O   0  5  0  0  0  0  0  0  0  0  0  0
   19.1550   16.1556   22.7969 O   0  0  0  0  0  0  0  0  0  0  0  0
   19.5830   18.3999   22.2553 C   0  0  0  0  0  0  0  0  0  0  0  0
   19.7016   18.6653   23.3126 H   0  0  0  0  0  0  0  0  0  0  0  0
   18.5310   18.5714   21.9981 H   0  0  0  0  0  0  0  0  0  0  0  0
   20.4888   19.3087   21.3838 C   0  0  0  0  0  0  0  0  0  0  0  0
   21.5428   19.1331   21.6410 H   0  0  0  0  0  0  0  0  0  0  0  0
   20.3708   19.0390   20.3249 H   0  0  0  0  0  0  0  0  0  0  0  0
   20.1523   20.8011   21.5767 C   0  0  0  0  0  0  0  0  0  0  0  0
   20.2926   21.1035   22.6228 H   0  0  0  0  0  0  0  0  0  0  0  0
   20.8027   21.4278   20.9526 H   0  0  0  0  0  0  0  0  0  0  0  0
   19.1112   21.0086   21.2962 H   0  0  0  0  0  0  0  0  0  0  0  0
  1  2  1  0  0  0  0
  1  3  2  0  0  0  0
  1  4  1  0  0  0  0
  4  5  1  0  0  0  0
  4  6  1  0  0  0  0
  4  7  1  0  0  0  0
  7  8  1  0  0  0  0
  7  9  1  0  0  0  0
  7 10  1  0  0  0  0
 10 11  1  0  0  0  0
 10 12  1  0  0  0  0
 10 13  1  0  0  0  0
M  END
> <VConfSearch Rank>
973

> <Conf_Id>
0

> <Delta U+W>
0.000

> <U+W>
-58.332

> <U>
8.390

> <W>
-66.722

> <W(PB)>
-68.455

> <W(SA)>
1.733

> <Valence>
6.333

> <Coulomb>
1.215

> <VdW>
0.842

> <VdW6>
-3.344

> <VdW12>
4.186

> <Bond>
0.091

> <Angle>
2.713

> <Pdih>
3.529

> <Idih>
0.000

> <Tether>
0.000

$$$$
VeraChem MOL file


 13 12  0  0  0  0  0  0  0  0999 V2000     
   19.9350   17.9059   23.6131 C   0  0  0  0  0  0  0  0  0  0  0  0
   20.9911   17.7839   24.2006 O   0  5  0  0  0  0  0  0  0  0  0  0
   19.0140   17.1211   23.7183 O   0  0  0  0  0  0  0  0  0  0  0  0
   19.7632   19.0985   22.6783 C   0  0  0  0  0  0  0  0  0  0  0  0
   20.3369   19.9388   23.0880 H   0  0  0  0  0  0  0  0  0  0  0  0
   18.7065   19.3922   22.6903 H   0  0  0  0  0  0  0  0  0  0  0  0
   20.2167   18.8003   21.2288 C   0  0  0  0  0  0  0  0  0  0  0  0
   21.2733   18.4978   21.2303 H   0  0  0  0  0  0  0  0  0  0  0  0
   19.6425   17.9512   20.8325 H   0  0  0  0  0  0  0  0  0  0  0  0
   20.0306   20.0244   20.3100 C   0  0  0  0  0  0  0  0  0  0  0  0
   20.3573   19.7938   19.2876 H   0  0  0  0  0  0  0  0  0  0  0  0
   18.9761   20.3278   20.2687 H   0  0  0  0  0  0  0  0  0  0  0  0
   20.6195   20.8785   20.6695 H   0  0  0  0  0  0  0  0  0  0  0  0
  1  2  1  0  0  0  0
  1  3  2  0  0  0  0
  1  4  1  0  0  0  0
  4  5  1  0  0  0  0
  4  6  1  0  0  0  0
  4  7  1  0  0  0  0
  7  8  1  0  0  0  0
  7  9  1  0  0  0  0
  7 10  1  0  0  0  0
 10 11  1  0  0  0  0
 10 12  1  0  0  0  0
 10 13  1  0  0  0  0
M  END
> <VConfSearch Rank>
974

> <Conf_Id>
1

> <Delta U+W>
-1.339

> <U+W>
-59.672

> <U>
7.389

> <W>
-67.061

> <W(PB)>
-68.767

> <W(SA)>
1.707

> <Valence>
5.822

> <Coulomb>
1.255

> <VdW>
0.312

> <VdW6>
-3.061

> <VdW12>
3.372

> <Bond>
0.059

> <Angle>
2.241

> <Pdih>
3.522

> <Idih>
0.000

> <Tether>
0.000

$$$$
VeraChem MOL file


 13 12  0  0  0  0  0  0  0  0999 V2000     
   19.5753   18.7311   23.6859 C   0  0  0  0  0  0  0  0  0  0  0  0
   20.3788   18.2226   24.4421 O   0  5  0  0  0  0  0  0  0  0  0  0
   18.8387   19.6427   24.0058 O   0  0  0  0  0  0  0  0  0  0  0  0
   19.4624   18.1694   22.2708 C   0  0  0  0  0  0  0  0  0  0  0  0
   18.5102   18.4985   21.8370 H   0  0  0  0  0  0  0  0  0  0  0  0
   19.4111   17.0773   22.3556 H   0  0  0  0  0  0  0  0  0  0  0  0
   20.6374   18.5594   21.3376 C   0  0  0  0  0  0  0  0  0  0  0  0
   21.5889   18.2623   21.8006 H   0  0  0  0  0  0  0  0  0  0  0  0
   20.5536   17.9953   20.3986 H   0  0  0  0  0  0  0  0  0  0  0  0
   20.6620   20.0685   21.0185 C   0  0  0  0  0  0  0  0  0  0  0  0
   20.7896   20.6632   21.9327 H   0  0  0  0  0  0  0  0  0  0  0  0
   21.4924   20.3072   20.3413 H   0  0  0  0  0  0  0  0  0  0  0  0
   19.7279   20.3825   20.5344 H   0  0  0  0  0  0  0  0  0  0  0  0
  1  2  1  0  0  0  0
  1  3  2  0  0  0  0
  1  4  1  0  0  0  0
  4  5  1  0  0  0  0
  4  6  1  0  0  0  0
  4  7  1  0  0  0  0
  7  8  1  0  0  0  0
  7  9  1  0  0  0  0
  7 10  1  0  0  0  0
 10 11  1  0  0  0  0
 10 12  1  0  0  0  0
 10 13  1  0  0  0  0
M  END
> <VConfSearch Rank>
975

> <Conf_Id>
4

> <Delta U+W>
0.281

> <U+W>
-58.051

> <U>
9.781

> <W>
-67.832

> <W(PB)>
-69.535

> <W(SA)>
1.703

> <Valence>
6.123

> <Coulomb>
3.449

> <VdW>
0.209

> <VdW6>
-3.762

> <VdW12>
3.972

> <Bond>
0.078

> <Angle>
2.428

> <Pdih>
3.616

> <Idih>
0.002

> <Tether>
0.000

$$$$
VeraChem MOL file


 13 12  0  0  0  0  0  0  0  0999 V2000     
   21.5217   17.9083   21.6582 C   0  0  0  0  0  0  0  0  0  0  0  0
   21.6609   17.1138   22.5666 O   0  5  0  0  0  0  0  0  0  0  0  0
   21.7109   17.6303   20.4906 O   0  0  0  0  0  0  0  0  0  0  0  0
   21.1231   19.3413   22.0020 C   0  0  0  0  0  0  0  0  0  0  0  0
   21.8016   20.0090   21.4578 H   0  0  0  0  0  0  0  0  0  0  0  0
   21.3032   19.5093   23.0709 H   0  0  0  0  0  0  0  0  0  0  0  0
   19.6563   19.6948   21.6457 C   0  0  0  0  0  0  0  0  0  0  0  0
   19.5023   20.7737   21.7841 H   0  0  0  0  0  0  0  0  0  0  0  0
   19.4750   19.4838   20.5825 H   0  0  0  0  0  0  0  0  0  0  0  0
   18.6367   18.9253   22.5108 C   0  0  0  0  0  0  0  0  0  0  0  0
   18.7861   19.1395   23.5772 H   0  0  0  0  0  0  0  0  0  0  0  0
   17.6106   19.2128   22.2471 H   0  0  0  0  0  0  0  0  0  0  0  0
   18.7326   17.8413   22.3635 H   0  0  0  0  0  0  0  0  0  0  0  0
  1  2  1  0  0  0  0
  1  3  2  0  0  0  0
  1  4  1  0  0  0  0
  4  5  1  0  0  0  0
  4  6  1  0  0  0  0
  4  7  1  0  0  0  0
  7  8  1  0  0  0  0
  7  9  1  0  0  0  0
  7 10  1  0  0  0  0
 10 11  1  0  0  0  0
 10 12  1  0  0  0  0
 10 13  1  0  0  0  0
M  END
> <VConfSearch Rank>
976

> <Conf_Id>
36

> <Delta U+W>
0.272

> <U+W>
-58.060

> <U>
9.781

> <W>
-67.841

> <W(PB)>
-69.537

> <W(SA)>
1.696

> <Valence>
6.123

> <Coulomb>
3.449

> <VdW>
0.209

> <VdW6>
-3.762

> <VdW12>
3.972

> <Bond>
0.078

> <Angle>
2.428

> <Pdih>
3.616

> <Idih>
0.002

> <Tether>
0.000

$$$$
VeraChem MOL file


 13 12  0  0  0  0  0  0  0  0999 V2000     
   19.7364   17.5763   20.2599 C   0  0  0  0  0  0  0  0  0  0  0  0
   18.9158   18.1630   19.5819 O   0  5  0  0  0  0  0  0  0  0  0  0
   20.1671   16.4775   19.9734 O   0  0  0  0  0  0  0  0  0  0  0  0
   20.2702   18.2248   21.5386 C   0  0  0  0  0  0  0  0  0  0  0  0
   21.3607   18.2881   21.4434 H   0  0  0  0  0  0  0  0  0  0  0  0
   20.0605   17.5375   22.3669 H   0  0  0  0  0  0  0  0  0  0  0  0
   19.6919   19.6268   21.8640 C   0  0  0  0  0  0  0  0  0  0  0  0
   19.9007   20.3133   21.0315 H   0  0  0  0  0  0  0  0  0  0  0  0
   18.5988   19.5618   21.9561 H   0  0  0  0  0  0  0  0  0  0  0  0
   20.2862   20.1997   23.1665 C   0  0  0  0  0  0  0  0  0  0  0  0
   21.3764   20.3038   23.0885 H   0  0  0  0  0  0  0  0  0  0  0  0
   19.8655   21.1910   23.3800 H   0  0  0  0  0  0  0  0  0  0  0  0
   20.0641   19.5462   24.0204 H   0  0  0  0  0  0  0  0  0  0  0  0
  1  2  1  0  0  0  0
  1  3  2  0  0  0  0
  1  4  1  0  0  0  0
  4  5  1  0  0  0  0
  4  6  1  0  0  0  0
  4  7  1  0  0  0  0
  7  8  1  0  0  0  0
  7  9  1  0  0  0  0
  7 10  1  0  0  0  0
 10 11  1  0  0  0  0
 10 12  1  0  0  0  0
 10 13  1  0  0  0  0
M  END
> <VConfSearch Rank>
977

> <Conf_Id>
0

> <Delta U+W>
0.000

> <U+W>
-58.332

> <U>
8.390

> <W>
-66.722

> <W(PB)>
-68.455

> <W(SA)>
1.733

> <Valence>
6.333

> <Coulomb>
1.215

> <VdW>
0.842

> <VdW6>
-3.344

> <VdW12>
4.186

> <Bond>
0.091

> <Angle>
2.713

> <Pdih>
3.529

> <Idih>
0.000

> <Tether>
0.000

$$$$
VeraChem MOL file


 13 12  0  0  0  0  0  0  0  0999 V2000     
   19.0735   20.2425   20.3575 C   0  0  0  0  0  0  0  0  0  0  0  0
   19.6861   20.3699   19.3164 O   0  5  0  0  0  0  0  0  0  0  0  0
   18.2548   21.0459   20.7569 O   0  0  0  0  0  0  0  0  0  0  0  0
   19.3616   19.0174   21.2186 C   0  0  0  0  0  0  0  0  0  0  0  0
   19.6174   18.1844   20.5525 H   0  0  0  0  0  0  0  0  0  0  0  0
   18.4370   18.7418   21.7405 H   0  0  0  0  0  0  0  0  0  0  0  0
   20.5004   19.2513   22.2404 C   0  0  0  0  0  0  0  0  0  0  0  0
   21.4183   19.5362   21.7073 H   0  0  0  0  0  0  0  0  0  0  0  0
   20.2377   20.0937   22.8956 H   0  0  0  0  0  0  0  0  0  0  0  0
   20.7670   17.9955   23.0944 C   0  0  0  0  0  0  0  0  0  0  0  0
   21.5768   18.1807   23.8121 H   0  0  0  0  0  0  0  0  0  0  0  0
   19.8712   17.7082   23.6606 H   0  0  0  0  0  0  0  0  0  0  0  0
   21.0609   17.1465   22.4633 H   0  0  0  0  0  0  0  0  0  0  0  0
  1  2  1  0  0  0  0
  1  3  2  0  0  0  0
  1  4  1  0  0  0  0
  4  5  1  0  0  0  0
  4  6  1  0  0  0  0
  4  7  1  0  0  0  0
  7  8  1  0  0  0  0
  7  9  1  0  0  0  0
  7 10  1  0  0  0  0
 10 11  1  0  0  0  0
 10 12  1  0  0  0  0
 10 13  1  0  0  0  0
M  END
> <VConfSearch Rank>
978

> <Conf_Id>
1

> <Delta U+W>
-1.339

> <U+W>
-59.672

> <U>
7.389

> <W>
-67.061

> <W(PB)>
-68.767

> <W(SA)>
1.707

> <Valence>
5.822

> <Coulomb>
1.255

> <VdW>
0.312

> <VdW6>
-3.061

> <VdW12>
3.372

> <Bond>
0.059

> <Angle>
2.241

> <Pdih>
3.522

> <Idih>
0.000

> <Tether>
0.000

$$$$
VeraChem MOL file


 13 12  0  0  0  0  0  0  0  0999 V2000     
   19.6986   17.2276   21.9707 C   0  0  0  0  0  0  0  0  0  0  0  0
   20.6171   16.4562   21.7772 O   0  5  0  0  0  0  0  0  0  0  0  0
   18.8021   17.0160   22.7627 O   0  0  0  0  0  0  0  0  0  0  0  0
   19.6520   18.5128   21.1480 C   0  0  0  0  0  0  0  0  0  0  0  0
   18.6370   18.9257   21.1985 H   0  0  0  0  0  0  0  0  0  0  0  0
   19.8303   18.2379   20.1016 H   0  0  0  0  0  0  0  0  0  0  0  0
   20.6859   19.5828   21.5834 C   0  0  0  0  0  0  0  0  0  0  0  0
   21.6947   19.1467   21.5689 H   0  0  0  0  0  0  0  0  0  0  0  0
   20.6858   20.4021   20.8515 H   0  0  0  0  0  0  0  0  0  0  0  0
   20.3868   20.1576   22.9834 C   0  0  0  0  0  0  0  0  0  0  0  0
   20.4226   19.3711   23.7489 H   0  0  0  0  0  0  0  0  0  0  0  0
   21.1245   20.9248   23.2522 H   0  0  0  0  0  0  0  0  0  0  0  0
   19.3908   20.6186   23.0137 H   0  0  0  0  0  0  0  0  0  0  0  0
  1  2  1  0  0  0  0
  1  3  2  0  0  0  0
  1  4  1  0  0  0  0
  4  5  1  0  0  0  0
  4  6  1  0  0  0  0
  4  7  1  0  0  0  0
  7  8  1  0  0  0  0
  7  9  1  0  0  0  0
  7 10  1  0  0  0  0
 10 11  1  0  0  0  0
 10 12  1  0  0  0  0
 10 13  1  0  0  0  0
M  END
> <VConfSearch Rank>
979

> <Conf_Id>
4

> <Delta U+W>
0.281

> <U+W>
-58.051

> <U>
9.781

> <W>
-67.832

> <W(PB)>
-69.535

> <W(SA)>
1.703

> <Valence>
6.123

> <Coulomb>
3.449

> <VdW>
0.209

> <VdW6>
-3.762

> <VdW12>
3.972

> <Bond>
0.078

> <Angle>
2.428

> <Pdih>
3.616

> <Idih>
0.002

> <Tether>
0.000

$$$$
VeraChem MOL file


 13 12  0  0  0  0  0  0  0  0999 V2000     
   21.2525   17.6134   21.7023 C   0  0  0  0  0  0  0  0  0  0  0  0
   20.8951   16.6380   22.3323 O   0  5  0  0  0  0  0  0  0  0  0  0
   21.7314   17.5518   20.5874 O   0  0  0  0  0  0  0  0  0  0  0  0
   21.1274   18.9865   22.3577 C   0  0  0  0  0  0  0  0  0  0  0  0
   22.0857   19.5020   22.2224 H   0  0  0  0  0  0  0  0  0  0  0  0
   20.9912   18.8494   23.4375 H   0  0  0  0  0  0  0  0  0  0  0  0
   19.9851   19.8626   21.7825 C   0  0  0  0  0  0  0  0  0  0  0  0
   20.0633   20.8757   22.2001 H   0  0  0  0  0  0  0  0  0  0  0  0
   20.1080   19.9592   20.6946 H   0  0  0  0  0  0  0  0  0  0  0  0
   18.5870   19.2931   22.1003 C   0  0  0  0  0  0  0  0  0  0  0  0
   18.4347   19.2091   23.1843 H   0  0  0  0  0  0  0  0  0  0  0  0
   17.8024   19.9462   21.6967 H   0  0  0  0  0  0  0  0  0  0  0  0
   18.4573   18.2961   21.6588 H   0  0  0  0  0  0  0  0  0  0  0  0
  1  2  1  0  0  0  0
  1  3  2  0  0  0  0
  1  4  1  0  0  0  0
  4  5  1  0  0  0  0
  4  6  1  0  0  0  0
  4  7  1  0  0  0  0
  7  8  1  0  0  0  0
  7  9  1  0  0  0  0
  7 10  1  0  0  0  0
 10 11  1  0  0  0  0
 10 12  1  0  0  0  0
 10 13  1  0  0  0  0
M  END
> <VConfSearch Rank>
980

> <Conf_Id>
36

> <Delta U+W>
0.272

> <U+W>
-58.060

> <U>
9.781

> <W>
-67.841

> <W(PB)>
-69.537

> <W(SA)>
1.696

> <Valence>
6.123

> <Coulomb>
3.449

> <VdW>
0.209

> <VdW6>
-3.762

> <VdW12>
3.972

> <Bond>
0.078

> <Angle>
2.428

> <Pdih>
3.616

> <Idih>
0.002

> <Tether>
0.000

$$$$
VeraChem MOL file


 13 12  0  0  0  0  0  0  0  0999 V2000     
   18.6613   17.5540   21.0454 C   0  0  0  0  0  0  0  0  0  0  0  0
   19.2793   16.5330   21.2752 O   0  5  0  0  0  0  0  0  0  0  0  0
   17.5716   17.5611   20.5094 O   0  0  0  0  0  0  0  0  0  0  0  0
   19.2565   18.9080   21.4369 C   0  0  0  0  0  0  0  0  0  0  0  0
   18.5392   19.4007   22.1040 H   0  0  0  0  0  0  0  0  0  0  0  0
   19.3161   19.5155   20.5260 H   0  0  0  0  0  0  0  0  0  0  0  0
   20.6487   18.8498   22.1182 C   0  0  0  0  0  0  0  0  0  0  0  0
   20.5874   18.2382   23.0292 H   0  0  0  0  0  0  0  0  0  0  0  0
   21.3653   18.3530   21.4493 H   0  0  0  0  0  0  0  0  0  0  0  0
   21.1671   20.2574   22.4757 C   0  0  0  0  0  0  0  0  0  0  0  0
   20.4828   20.7637   23.1691 H   0  0  0  0  0  0  0  0  0  0  0  0
   22.1523   20.1959   22.9562 H   0  0  0  0  0  0  0  0  0  0  0  0
   21.2669   20.8795   21.5765 H   0  0  0  0  0  0  0  0  0  0  0  0
  1  2  1  0  0  0  0
  1  3  2  0  0  0  0
  1  4  1  0  0  0  0
  4  5  1  0  0  0  0
  4  6  1  0  0  0  0
  4  7  1  0  0  0  0
  7  8  1  0  0  0  0
  7  9  1  0  0  0  0
  7 10  1  0  0  0  0
 10 11  1  0  0  0  0
 10 12  1  0  0  0  0
 10 13  1  0  0  0  0
M  END
> <VConfSearch Rank>
981

> <Conf_Id>
0

> <Delta U+W>
0.000

> <U+W>
-58.332

> <U>
8.390

> <W>
-66.722

> <W(PB)>
-68.455

> <W(SA)>
1.733

> <Valence>
6.333

> <Coulomb>
1.215

> <VdW>
0.842

> <VdW6>
-3.344

> <VdW12>
4.186

> <Bond>
0.091

> <Angle>
2.713

> <Pdih>
3.529

> <Idih>
0.000

> <Tether>
0.000

$$$$
VeraChem MOL file


 13 12  0  0  0  0  0  0  0  0999 V2000     
   19.7904   16.9780   21.4187 C   0  0  0  0  0  0  0  0  0  0  0  0
   19.3756   16.6929   20.3133 O   0  5  0  0  0  0  0  0  0  0  0  0
   19.6855   16.2479   22.3837 O   0  0  0  0  0  0  0  0  0  0  0  0
   20.4620   18.3337   21.6096 C   0  0  0  0  0  0  0  0  0  0  0  0
   20.9761   18.5945   20.6764 H   0  0  0  0  0  0  0  0  0  0  0  0
   21.2316   18.2275   22.3838 H   0  0  0  0  0  0  0  0  0  0  0  0
   19.4655   19.4522   21.9992 C   0  0  0  0  0  0  0  0  0  0  0  0
   18.6940   19.5428   21.2217 H   0  0  0  0  0  0  0  0  0  0  0  0
   18.9497   19.1758   22.9295 H   0  0  0  0  0  0  0  0  0  0  0  0
   20.1748   20.8086   22.1844 C   0  0  0  0  0  0  0  0  0  0  0  0
   19.4527   21.5882   22.4601 H   0  0  0  0  0  0  0  0  0  0  0  0
   20.9312   20.7511   22.9783 H   0  0  0  0  0  0  0  0  0  0  0  0
   20.6735   21.1209   21.2574 H   0  0  0  0  0  0  0  0  0  0  0  0
  1  2  1  0  0  0  0
  1  3  2  0  0  0  0
  1  4  1  0  0  0  0
  4  5  1  0  0  0  0
  4  6  1  0  0  0  0
  4  7  1  0  0  0  0
  7  8  1  0  0  0  0
  7  9  1  0  0  0  0
  7 10  1  0  0  0  0
 10 11  1  0  0  0  0
 10 12  1  0  0  0  0
 10 13  1  0  0  0  0
M  END
> <VConfSearch Rank>
982

> <Conf_Id>
1

> <Delta U+W>
-1.339

> <U+W>
-59.672

> <U>
7.389

> <W>
-67.061

> <W(PB)>
-68.767

> <W(SA)>
1.707

> <Valence>
5.822

> <Coulomb>
1.255

> <VdW>
0.312

> <VdW6>
-3.061

> <VdW12>
3.372

> <Bond>
0.059

> <Angle>
2.241

> <Pdih>
3.522

> <Idih>
0.000

> <Tether>
0.000

$$$$
VeraChem MOL file


 13 12  0  0  0  0  0  0  0  0999 V2000     
   19.5731   20.3676   21.0243 C   0  0  0  0  0  0  0  0  0  0  0  0
   19.7938   21.4652   21.4963 O   0  5  0  0  0  0  0  0  0  0  0  0
   19.6861   20.1121   19.8420 O   0  0  0  0  0  0  0  0  0  0  0  0
   19.0941   19.2630   21.9630 C   0  0  0  0  0  0  0  0  0  0  0  0
   18.6427   18.4632   21.3631 H   0  0  0  0  0  0  0  0  0  0  0  0
   18.2934   19.6845   22.5824 H   0  0  0  0  0  0  0  0  0  0  0  0
   20.2028   18.6830   22.8783 C   0  0  0  0  0  0  0  0  0  0  0  0
   20.6762   19.4977   23.4440 H   0  0  0  0  0  0  0  0  0  0  0  0
   19.7448   18.0106   23.6166 H   0  0  0  0  0  0  0  0  0  0  0  0
   21.2755   17.9064   22.0868 C   0  0  0  0  0  0  0  0  0  0  0  0
   21.7862   18.5607   21.3678 H   0  0  0  0  0  0  0  0  0  0  0  0
   22.0331   17.4931   22.7652 H   0  0  0  0  0  0  0  0  0  0  0  0
   20.8263   17.0730   21.5309 H   0  0  0  0  0  0  0  0  0  0  0  0
  1  2  1  0  0  0  0
  1  3  2  0  0  0  0
  1  4  1  0  0  0  0
  4  5  1  0  0  0  0
  4  6  1  0  0  0  0
  4  7  1  0  0  0  0
  7  8  1  0  0  0  0
  7  9  1  0  0  0  0
  7 10  1  0  0  0  0
 10 11  1  0  0  0  0
 10 12  1  0  0  0  0
 10 13  1  0  0  0  0
M  END
> <VConfSearch Rank>
983

> <Conf_Id>
4

> <Delta U+W>
0.281

> <U+W>
-58.051

> <U>
9.781

> <W>
-67.832

> <W(PB)>
-69.535

> <W(SA)>
1.703

> <Valence>
6.123

> <Coulomb>
3.449

> <VdW>
0.209

> <VdW6>
-3.762

> <VdW12>
3.972

> <Bond>
0.078

> <Angle>
2.428

> <Pdih>
3.616

> <Idih>
0.002

> <Tether>
0.000

$$$$
VeraChem MOL file


 13 12  0  0  0  0  0  0  0  0999 V2000     
   18.4009   18.7580   22.4677 C   0  0  0  0  0  0  0  0  0  0  0  0
   17.7655   18.3452   21.5181 O   0  5  0  0  0  0  0  0  0  0  0  0
   18.2018   18.4024   23.6122 O   0  0  0  0  0  0  0  0  0  0  0  0
   19.4830   19.8053   22.2167 C   0  0  0  0  0  0  0  0  0  0  0  0
   19.3343   20.6105   22.9461 H   0  0  0  0  0  0  0  0  0  0  0  0
   19.3241   20.2440   21.2240 H   0  0  0  0  0  0  0  0  0  0  0  0
   20.9306   19.2632   22.3353 C   0  0  0  0  0  0  0  0  0  0  0  0
   21.6349   20.1051   22.2909 H   0  0  0  0  0  0  0  0  0  0  0  0
   21.0664   18.7894   23.3176 H   0  0  0  0  0  0  0  0  0  0  0  0
   21.2773   18.2566   21.2189 C   0  0  0  0  0  0  0  0  0  0  0  0
   21.1695   18.7170   20.2280 H   0  0  0  0  0  0  0  0  0  0  0  0
   22.3133   17.9080   21.3204 H   0  0  0  0  0  0  0  0  0  0  0  0
   20.6194   17.3785   21.2609 H   0  0  0  0  0  0  0  0  0  0  0  0
  1  2  1  0  0  0  0
  1  3  2  0  0  0  0
  1  4  1  0  0  0  0
  4  5  1  0  0  0  0
  4  6  1  0  0  0  0
  4  7  1  0  0  0  0
  7  8  1  0  0  0  0
  7  9  1  0  0  0  0
  7 10  1  0  0  0  0
 10 11  1  0  0  0  0
 10 12  1  0  0  0  0
 10 13  1  0  0  0  0
M  END
> <VConfSearch Rank>
984

> <Conf_Id>
36

> <Delta U+W>
0.272

> <U+W>
-58.060

> <U>
9.781

> <W>
-67.841

> <W(PB)>
-69.537

> <W(SA)>
1.696

> <Valence>
6.123

> <Coulomb>
3.449

> <VdW>
0.209

> <VdW6>
-3.762

> <VdW12>
3.972

> <Bond>
0.078

> <Angle>
2.428

> <Pdih>
3.616

> <Idih>
0.002

> <Tether>
0.000

$$$$
VeraChem MOL file


 13 12  0  0  0  0  0  0  0  0999 V2000     
   19.8044   19.8714   23.7553 C   0  0  0  0  0  0  0  0  0  0  0  0
   20.3886   19.0457   24.4293 O   0  5  0  0  0  0  0  0  0  0  0  0
   19.2928   20.8671   24.2259 O   0  0  0  0  0  0  0  0  0  0  0  0
   19.6912   19.6758   22.2421 C   0  0  0  0  0  0  0  0  0  0  0  0
   20.1327   20.5581   21.7637 H   0  0  0  0  0  0  0  0  0  0  0  0
   18.6239   19.6756   21.9907 H   0  0  0  0  0  0  0  0  0  0  0  0
   20.3592   18.3909   21.6864 C   0  0  0  0  0  0  0  0  0  0  0  0
   21.4280   18.3918   21.9419 H   0  0  0  0  0  0  0  0  0  0  0  0
   19.9174   17.5081   22.1693 H   0  0  0  0  0  0  0  0  0  0  0  0
   20.1944   18.2792   20.1573 C   0  0  0  0  0  0  0  0  0  0  0  0
   20.6558   19.1359   19.6487 H   0  0  0  0  0  0  0  0  0  0  0  0
   20.6729   17.3648   19.7828 H   0  0  0  0  0  0  0  0  0  0  0  0
   19.1331   18.2452   19.8779 H   0  0  0  0  0  0  0  0  0  0  0  0
  1  2  1  0  0  0  0
  1  3  2  0  0  0  0
  1  4  1  0  0  0  0
  4  5  1  0  0  0  0
  4  6  1  0  0  0  0
  4  7  1  0  0  0  0
  7  8  1  0  0  0  0
  7  9  1  0  0  0  0
  7 10  1  0  0  0  0
 10 11  1  0  0  0  0
 10 12  1  0  0  0  0
 10 13  1  0  0  0  0
M  END
> <VConfSearch Rank>
985

> <Conf_Id>
0

> <Delta U+W>
0.000

> <U+W>
-58.332

> <U>
8.390

> <W>
-66.722

> <W(PB)>
-68.455

> <W(SA)>
1.733

> <Valence>
6.333

> <Coulomb>
1.215

> <VdW>
0.842

> <VdW6>
-3.344

> <VdW12>
4.186

> <Bond>
0.091

> <Angle>
2.713

> <Pdih>
3.529

> <Idih>
0.000

> <Tether>
0.000

$$$$
VeraChem MOL file


 13 12  0  0  0  0  0  0  0  0999 V2000     
   20.0157   18.0351   23.6896 C   0  0  0  0  0  0  0  0  0  0  0  0
   20.9667   18.2675   24.4087 O   0  5  0  0  0  0  0  0  0  0  0  0
   19.3587   17.0156   23.7545 O   0  0  0  0  0  0  0  0  0  0  0  0
   19.6380   19.0709   22.6360 C   0  0  0  0  0  0  0  0  0  0  0  0
   19.8771   20.0649   23.0333 H   0  0  0  0  0  0  0  0  0  0  0  0
   18.5511   19.0325   22.4938 H   0  0  0  0  0  0  0  0  0  0  0  0
   20.3600   18.8494   21.2849 C   0  0  0  0  0  0  0  0  0  0  0  0
   21.4474   18.8800   21.4412 H   0  0  0  0  0  0  0  0  0  0  0  0
   20.1210   17.8475   20.9016 H   0  0  0  0  0  0  0  0  0  0  0  0
   19.9572   19.9116   20.2425 C   0  0  0  0  0  0  0  0  0  0  0  0
   20.4788   19.7381   19.2922 H   0  0  0  0  0  0  0  0  0  0  0  0
   18.8772   19.8804   20.0470 H   0  0  0  0  0  0  0  0  0  0  0  0
   20.2138   20.9208   20.5907 H   0  0  0  0  0  0  0  0  0  0  0  0
  1  2  1  0  0  0  0
  1  3  2  0  0  0  0
  1  4  1  0  0  0  0
  4  5  1  0  0  0  0
  4  6  1  0  0  0  0
  4  7  1  0  0  0  0
  7  8  1  0  0  0  0
  7  9  1  0  0  0  0
  7 10  1  0  0  0  0
 10 11  1  0  0  0  0
 10 12  1  0  0  0  0
 10 13  1  0  0  0  0
M  END
> <VConfSearch Rank>
986

> <Conf_Id>
1

> <Delta U+W>
-1.339

> <U+W>
-59.672

> <U>
7.389

> <W>
-67.061

> <W(PB)>
-68.767

> <W(SA)>
1.707

> <Valence>
5.822

> <Coulomb>
1.255

> <VdW>
0.312

> <VdW6>
-3.061

> <VdW12>
3.372

> <Bond>
0.059

> <Angle>
2.241

> <Pdih>
3.522

> <Idih>
0.000

> <Tether>
0.000

$$$$
VeraChem MOL file


 13 12  0  0  0  0  0  0  0  0999 V2000     
   19.9718   17.9422   23.4584 C   0  0  0  0  0  0  0  0  0  0  0  0
   19.9082   18.5314   24.5190 O   0  5  0  0  0  0  0  0  0  0  0  0
   19.3079   16.9587   23.1979 O   0  0  0  0  0  0  0  0  0  0  0  0
   20.9649   18.4451   22.4135 C   0  0  0  0  0  0  0  0  0  0  0  0
   21.1327   17.6498   21.6768 H   0  0  0  0  0  0  0  0  0  0  0  0
   21.9211   18.6105   22.9241 H   0  0  0  0  0  0  0  0  0  0  0  0
   20.5288   19.7505   21.7000 C   0  0  0  0  0  0  0  0  0  0  0  0
   20.3234   20.5280   22.4491 H   0  0  0  0  0  0  0  0  0  0  0  0
   21.3599   20.1183   21.0830 H   0  0  0  0  0  0  0  0  0  0  0  0
   19.2882   19.5483   20.8055 C   0  0  0  0  0  0  0  0  0  0  0  0
   18.4232   19.2222   21.3981 H   0  0  0  0  0  0  0  0  0  0  0  0
   19.0184   20.4850   20.3007 H   0  0  0  0  0  0  0  0  0  0  0  0
   19.4795   18.7901   20.0348 H   0  0  0  0  0  0  0  0  0  0  0  0
  1  2  1  0  0  0  0
  1  3  2  0  0  0  0
  1  4  1  0  0  0  0
  4  5  1  0  0  0  0
  4  6  1  0  0  0  0
  4  7  1  0  0  0  0
  7  8  1  0  0  0  0
  7  9  1  0  0  0  0
  7 10  1  0  0  0  0
 10 11  1  0  0  0  0
 10 12  1  0  0  0  0
 10 13  1  0  0  0  0
M  END
> <VConfSearch Rank>
987

> <Conf_Id>
4

> <Delta U+W>
0.281

> <U+W>
-58.051

> <U>
9.781

> <W>
-67.832

> <W(PB)>
-69.535

> <W(SA)>
1.703

> <Valence>
6.123

> <Coulomb>
3.449

> <VdW>
0.209

> <VdW6>
-3.762

> <VdW12>
3.972

> <Bond>
0.078

> <Angle>
2.428

> <Pdih>
3.616

> <Idih>
0.002

> <Tether>
0.000

$$$$
VeraChem MOL file


 13 12  0  0  0  0  0  0  0  0999 V2000     
   19.5778   17.8560   23.2942 C   0  0  0  0  0  0  0  0  0  0  0  0
   19.5745   18.4426   24.3581 O   0  5  0  0  0  0  0  0  0  0  0  0
   18.7385   17.0360   22.9791 O   0  0  0  0  0  0  0  0  0  0  0  0
   20.7150   18.1356   22.3148 C   0  0  0  0  0  0  0  0  0  0  0  0
   21.1002   17.1666   21.9757 H   0  0  0  0  0  0  0  0  0  0  0  0
   21.5315   18.6292   22.8560 H   0  0  0  0  0  0  0  0  0  0  0  0
   20.2997   18.9840   21.0856 C   0  0  0  0  0  0  0  0  0  0  0  0
   21.1306   19.0078   20.3673 H   0  0  0  0  0  0  0  0  0  0  0  0
   19.4544   18.5020   20.5747 H   0  0  0  0  0  0  0  0  0  0  0  0
   19.9218   20.4303   21.4669 C   0  0  0  0  0  0  0  0  0  0  0  0
   20.7612   20.9383   21.9596 H   0  0  0  0  0  0  0  0  0  0  0  0
   19.6524   21.0082   20.5733 H   0  0  0  0  0  0  0  0  0  0  0  0
   19.0634   20.4465   22.1516 H   0  0  0  0  0  0  0  0  0  0  0  0
  1  2  1  0  0  0  0
  1  3  2  0  0  0  0
  1  4  1  0  0  0  0
  4  5  1  0  0  0  0
  4  6  1  0  0  0  0
  4  7  1  0  0  0  0
  7  8  1  0  0  0  0
  7  9  1  0  0  0  0
  7 10  1  0  0  0  0
 10 11  1  0  0  0  0
 10 12  1  0  0  0  0
 10 13  1  0  0  0  0
M  END
> <VConfSearch Rank>
988

> <Conf_Id>
36

> <Delta U+W>
0.272

> <U+W>
-58.060

> <U>
9.781

> <W>
-67.841

> <W(PB)>
-69.537

> <W(SA)>
1.696

> <Valence>
6.123

> <Coulomb>
3.449

> <VdW>
0.209

> <VdW6>
-3.762

> <VdW12>
3.972

> <Bond>
0.078

> <Angle>
2.428

> <Pdih>
3.616

> <Idih>
0.002

> <Tether>
0.000

$$$$
VeraChem MOL file


 13 12  0  0  0  0  0  0  0  0999 V2000     
   19.3368   16.9911   22.0170 C   0  0  0  0  0  0  0  0  0  0  0  0
   20.3745   16.4396   22.3273 O   0  5  0  0  0  0  0  0  0  0  0  0
   18.2834   16.3989   21.8965 O   0  0  0  0  0  0  0  0  0  0  0  0
   19.3243   18.4991   21.7594 C   0  0  0  0  0  0  0  0  0  0  0  0
   18.5910   18.9424   22.4436 H   0  0  0  0  0  0  0  0  0  0  0  0
   18.9475   18.6546   20.7415 H   0  0  0  0  0  0  0  0  0  0  0  0
   20.6915   19.2128   21.9251 C   0  0  0  0  0  0  0  0  0  0  0  0
   21.0687   19.0533   22.9449 H   0  0  0  0  0  0  0  0  0  0  0  0
   21.4257   18.7651   21.2408 H   0  0  0  0  0  0  0  0  0  0  0  0
   20.5817   20.7255   21.6463 C   0  0  0  0  0  0  0  0  0  0  0  0
   19.8759   21.2025   22.3390 H   0  0  0  0  0  0  0  0  0  0  0  0
   21.5579   21.2128   21.7684 H   0  0  0  0  0  0  0  0  0  0  0  0
   20.2356   20.9120   20.6212 H   0  0  0  0  0  0  0  0  0  0  0  0
  1  2  1  0  0  0  0
  1  3  2  0  0  0  0
  1  4  1  0  0  0  0
  4  5  1  0  0  0  0
  4  6  1  0  0  0  0
  4  7  1  0  0  0  0
  7  8  1  0  0  0  0
  7  9  1  0  0  0  0
  7 10  1  0  0  0  0
 10 11  1  0  0  0  0
 10 12  1  0  0  0  0
 10 13  1  0  0  0  0
M  END
> <VConfSearch Rank>
989

> <Conf_Id>
0

> <Delta U+W>
0.000

> <U+W>
-58.332

> <U>
8.390

> <W>
-66.722

> <W(PB)>
-68.455

> <W(SA)>
1.733

> <Valence>
6.333

> <Coulomb>
1.215

> <VdW>
0.842

> <VdW6>
-3.344

> <VdW12>
4.186

> <Bond>
0.091

> <Angle>
2.713

> <Pdih>
3.529

> <Idih>
0.000

> <Tether>
0.000

$$$$
VeraChem MOL file


 13 12  0  0  0  0  0  0  0  0999 V2000     
   18.4578   19.3342   23.2559 C   0  0  0  0  0  0  0  0  0  0  0  0
   17.9962   18.3296   23.7590 O   0  5  0  0  0  0  0  0  0  0  0  0
   17.8537   20.3852   23.1804 O   0  0  0  0  0  0  0  0  0  0  0  0
   19.8644   19.2670   22.6708 C   0  0  0  0  0  0  0  0  0  0  0  0
   20.4491   18.5569   23.2682 H   0  0  0  0  0  0  0  0  0  0  0  0
   20.3316   20.2521   22.7910 H   0  0  0  0  0  0  0  0  0  0  0  0
   19.8796   18.8486   21.1807 C   0  0  0  0  0  0  0  0  0  0  0  0
   19.4006   17.8656   21.0711 H   0  0  0  0  0  0  0  0  0  0  0  0
   19.2831   19.5612   20.5939 H   0  0  0  0  0  0  0  0  0  0  0  0
   21.3145   18.7901   20.6196 C   0  0  0  0  0  0  0  0  0  0  0  0
   21.3048   18.4920   19.5630 H   0  0  0  0  0  0  0  0  0  0  0  0
   21.8044   19.7702   20.6908 H   0  0  0  0  0  0  0  0  0  0  0  0
   21.9227   18.0615   21.1717 H   0  0  0  0  0  0  0  0  0  0  0  0
  1  2  1  0  0  0  0
  1  3  2  0  0  0  0
  1  4  1  0  0  0  0
  4  5  1  0  0  0  0
  4  6  1  0  0  0  0
  4  7  1  0  0  0  0
  7  8  1  0  0  0  0
  7  9  1  0  0  0  0
  7 10  1  0  0  0  0
 10 11  1  0  0  0  0
 10 12  1  0  0  0  0
 10 13  1  0  0  0  0
M  END
> <VConfSearch Rank>
990

> <Conf_Id>
1

> <Delta U+W>
-1.339

> <U+W>
-59.672

> <U>
7.389

> <W>
-67.061

> <W(PB)>
-68.767

> <W(SA)>
1.707

> <Valence>
5.822

> <Coulomb>
1.255

> <VdW>
0.312

> <VdW6>
-3.061

> <VdW12>
3.372

> <Bond>
0.059

> <Angle>
2.241

> <Pdih>
3.522

> <Idih>
0.000

> <Tether>
0.000

$$$$
VeraChem MOL file


 13 12  0  0  0  0  0  0  0  0999 V2000     
   19.1809   17.7226   22.8737 C   0  0  0  0  0  0  0  0  0  0  0  0
   19.4395   17.5896   24.0533 O   0  5  0  0  0  0  0  0  0  0  0  0
   18.0522   17.6776   22.4265 O   0  0  0  0  0  0  0  0  0  0  0  0
   20.3399   17.9208   21.9001 C   0  0  0  0  0  0  0  0  0  0  0  0
   19.9867   17.7039   20.8844 H   0  0  0  0  0  0  0  0  0  0  0  0
   21.0999   17.1671   22.1386 H   0  0  0  0  0  0  0  0  0  0  0  0
   20.9791   19.3322   21.9530 C   0  0  0  0  0  0  0  0  0  0  0  0
   21.2918   19.5558   22.9826 H   0  0  0  0  0  0  0  0  0  0  0  0
   21.8895   19.3383   21.3382 H   0  0  0  0  0  0  0  0  0  0  0  0
   20.0228   20.4326   21.4484 C   0  0  0  0  0  0  0  0  0  0  0  0
   19.1186   20.4848   22.0692 H   0  0  0  0  0  0  0  0  0  0  0  0
   20.5121   21.4147   21.4804 H   0  0  0  0  0  0  0  0  0  0  0  0
   19.7151   20.2401   20.4122 H   0  0  0  0  0  0  0  0  0  0  0  0
  1  2  1  0  0  0  0
  1  3  2  0  0  0  0
  1  4  1  0  0  0  0
  4  5  1  0  0  0  0
  4  6  1  0  0  0  0
  4  7  1  0  0  0  0
  7  8  1  0  0  0  0
  7  9  1  0  0  0  0
  7 10  1  0  0  0  0
 10 11  1  0  0  0  0
 10 12  1  0  0  0  0
 10 13  1  0  0  0  0
M  END
> <VConfSearch Rank>
991

> <Conf_Id>
4

> <Delta U+W>
0.281

> <U+W>
-58.051

> <U>
9.781

> <W>
-67.832

> <W(PB)>
-69.535

> <W(SA)>
1.703

> <Valence>
6.123

> <Coulomb>
3.449

> <VdW>
0.209

> <VdW6>
-3.762

> <VdW12>
3.972

> <Bond>
0.078

> <Angle>
2.428

> <Pdih>
3.616

> <Idih>
0.002

> <Tether>
0.000

$$$$
VeraChem MOL file


 13 12  0  0  0  0  0  0  0  0999 V2000     
   20.8251   20.2975   22.9671 C   0  0  0  0  0  0  0  0  0  0  0  0
   21.6405   20.9005   22.2981 O   0  5  0  0  0  0  0  0  0  0  0  0
   20.0772   20.8371   23.7580 O   0  0  0  0  0  0  0  0  0  0  0  0
   20.7593   18.7780   22.8351 C   0  0  0  0  0  0  0  0  0  0  0  0
   20.7584   18.3614   23.8495 H   0  0  0  0  0  0  0  0  0  0  0  0
   21.6782   18.4272   22.3495 H   0  0  0  0  0  0  0  0  0  0  0  0
   19.5174   18.2611   22.0645 C   0  0  0  0  0  0  0  0  0  0  0  0
   19.4718   17.1666   22.1479 H   0  0  0  0  0  0  0  0  0  0  0  0
   18.6040   18.6519   22.5345 H   0  0  0  0  0  0  0  0  0  0  0  0
   19.5437   18.6520   20.5723 C   0  0  0  0  0  0  0  0  0  0  0  0
   20.4385   18.2520   20.0776 H   0  0  0  0  0  0  0  0  0  0  0  0
   18.6621   18.2546   20.0527 H   0  0  0  0  0  0  0  0  0  0  0  0
   19.5449   19.7433   20.4502 H   0  0  0  0  0  0  0  0  0  0  0  0
  1  2  1  0  0  0  0
  1  3  2  0  0  0  0
  1  4  1  0  0  0  0
  4  5  1  0  0  0  0
  4  6  1  0  0  0  0
  4  7  1  0  0  0  0
  7  8  1  0  0  0  0
  7  9  1  0  0  0  0
  7 10  1  0  0  0  0
 10 11  1  0  0  0  0
 10 12  1  0  0  0  0
 10 13  1  0  0  0  0
M  END
> <VConfSearch Rank>
992

> <Conf_Id>
36

> <Delta U+W>
0.272

> <U+W>
-58.060

> <U>
9.781

> <W>
-67.841

> <W(PB)>
-69.537

> <W(SA)>
1.696

> <Valence>
6.123

> <Coulomb>
3.449

> <VdW>
0.209

> <VdW6>
-3.762

> <VdW12>
3.972

> <Bond>
0.078

> <Angle>
2.428

> <Pdih>
3.616

> <Idih>
0.002

> <Tether>
0.000

$$$$
VeraChem MOL file


 13 12  0  0  0  0  0  0  0  0999 V2000     
   19.3358   18.1344   19.9973 C   0  0  0  0  0  0  0  0  0  0  0  0
   19.9585   17.0906   20.0077 O   0  5  0  0  0  0  0  0  0  0  0  0
   18.5703   18.4389   19.1050 O   0  0  0  0  0  0  0  0  0  0  0  0
   19.5025   19.1311   21.1460 C   0  0  0  0  0  0  0  0  0  0  0  0
   18.5092   19.3028   21.5776 H   0  0  0  0  0  0  0  0  0  0  0  0
   19.8307   20.0821   20.7097 H   0  0  0  0  0  0  0  0  0  0  0  0
   20.4897   18.6999   22.2619 C   0  0  0  0  0  0  0  0  0  0  0  0
   20.1605   17.7453   22.6958 H   0  0  0  0  0  0  0  0  0  0  0  0
   21.4837   18.5255   21.8268 H   0  0  0  0  0  0  0  0  0  0  0  0
   20.5925   19.7637   23.3736 C   0  0  0  0  0  0  0  0  0  0  0  0
   19.6162   19.9338   23.8461 H   0  0  0  0  0  0  0  0  0  0  0  0
   21.2948   19.4412   24.1533 H   0  0  0  0  0  0  0  0  0  0  0  0
   20.9499   20.7202   22.9701 H   0  0  0  0  0  0  0  0  0  0  0  0
  1  2  1  0  0  0  0
  1  3  2  0  0  0  0
  1  4  1  0  0  0  0
  4  5  1  0  0  0  0
  4  6  1  0  0  0  0
  4  7  1  0  0  0  0
  7  8  1  0  0  0  0
  7  9  1  0  0  0  0
  7 10  1  0  0  0  0
 10 11  1  0  0  0  0
 10 12  1  0  0  0  0
 10 13  1  0  0  0  0
M  END
> <VConfSearch Rank>
993

> <Conf_Id>
0

> <Delta U+W>
0.000

> <U+W>
-58.332

> <U>
8.390

> <W>
-66.722

> <W(PB)>
-68.455

> <W(SA)>
1.733

> <Valence>
6.333

> <Coulomb>
1.215

> <VdW>
0.842

> <VdW6>
-3.344

> <VdW12>
4.186

> <Bond>
0.091

> <Angle>
2.713

> <Pdih>
3.529

> <Idih>
0.000

> <Tether>
0.000

$$$$
VeraChem MOL file


 13 12  0  0  0  0  0  0  0  0999 V2000     
   21.7020   18.0976   22.6321 C   0  0  0  0  0  0  0  0  0  0  0  0
   22.6016   17.8705   21.8482 O   0  5  0  0  0  0  0  0  0  0  0  0
   21.5369   17.4760   23.6625 O   0  0  0  0  0  0  0  0  0  0  0  0
   20.7154   19.2106   22.2953 C   0  0  0  0  0  0  0  0  0  0  0  0
   21.2542   19.9876   21.7393 H   0  0  0  0  0  0  0  0  0  0  0  0
   20.3762   19.6622   23.2355 H   0  0  0  0  0  0  0  0  0  0  0  0
   19.5009   18.7135   21.4745 C   0  0  0  0  0  0  0  0  0  0  0  0
   19.8532   18.2544   20.5401 H   0  0  0  0  0  0  0  0  0  0  0  0
   18.9750   17.9291   22.0366 H   0  0  0  0  0  0  0  0  0  0  0  0
   18.5236   19.8612   21.1505 C   0  0  0  0  0  0  0  0  0  0  0  0
   17.6700   19.4895   20.5687 H   0  0  0  0  0  0  0  0  0  0  0  0
   18.1343   20.3170   22.0703 H   0  0  0  0  0  0  0  0  0  0  0  0
   19.0192   20.6448   20.5623 H   0  0  0  0  0  0  0  0  0  0  0  0
  1  2  1  0  0  0  0
  1  3  2  0  0  0  0
  1  4  1  0  0  0  0
  4  5  1  0  0  0  0
  4  6  1  0  0  0  0
  4  7  1  0  0  0  0
  7  8  1  0  0  0  0
  7  9  1  0  0  0  0
  7 10  1  0  0  0  0
 10 11  1  0  0  0  0
 10 12  1  0  0  0  0
 10 13  1  0  0  0  0
M  END
> <VConfSearch Rank>
994

> <Conf_Id>
1

> <Delta U+W>
-1.339

> <U+W>
-59.672

> <U>
7.389

> <W>
-67.061

> <W(PB)>
-68.767

> <W(SA)>
1.707

> <Valence>
5.822

> <Coulomb>
1.255

> <VdW>
0.312

> <VdW6>
-3.061

> <VdW12>
3.372

> <Bond>
0.059

> <Angle>
2.241

> <Pdih>
3.522

> <Idih>
0.000

> <Tether>
0.000

$$$$
VeraChem MOL file


 13 12  0  0  0  0  0  0  0  0999 V2000     
   21.7597   19.4333   21.4290 C   0  0  0  0  0  0  0  0  0  0  0  0
   21.7987   20.2075   20.4935 O   0  5  0  0  0  0  0  0  0  0  0  0
   22.5195   19.4878   22.3754 O   0  0  0  0  0  0  0  0  0  0  0  0
   20.7238   18.3125   21.3937 C   0  0  0  0  0  0  0  0  0  0  0  0
   21.0187   17.5385   22.1129 H   0  0  0  0  0  0  0  0  0  0  0  0
   20.7714   17.8544   20.3985 H   0  0  0  0  0  0  0  0  0  0  0  0
   19.2731   18.7798   21.6772 C   0  0  0  0  0  0  0  0  0  0  0  0
   19.0024   19.5835   20.9780 H   0  0  0  0  0  0  0  0  0  0  0  0
   18.5826   17.9475   21.4839 H   0  0  0  0  0  0  0  0  0  0  0  0
   19.0825   19.2660   23.1288 C   0  0  0  0  0  0  0  0  0  0  0  0
   19.7273   20.1285   23.3440 H   0  0  0  0  0  0  0  0  0  0  0  0
   18.0420   19.5705   23.3013 H   0  0  0  0  0  0  0  0  0  0  0  0
   19.3266   18.4701   23.8445 H   0  0  0  0  0  0  0  0  0  0  0  0
  1  2  1  0  0  0  0
  1  3  2  0  0  0  0
  1  4  1  0  0  0  0
  4  5  1  0  0  0  0
  4  6  1  0  0  0  0
  4  7  1  0  0  0  0
  7  8  1  0  0  0  0
  7  9  1  0  0  0  0
  7 10  1  0  0  0  0
 10 11  1  0  0  0  0
 10 12  1  0  0  0  0
 10 13  1  0  0  0  0
M  END
> <VConfSearch Rank>
995

> <Conf_Id>
4

> <Delta U+W>
0.281

> <U+W>
-58.051

> <U>
9.781

> <W>
-67.832

> <W(PB)>
-69.535

> <W(SA)>
1.703

> <Valence>
6.123

> <Coulomb>
3.449

> <VdW>
0.209

> <VdW6>
-3.762

> <VdW12>
3.972

> <Bond>
0.078

> <Angle>
2.428

> <Pdih>
3.616

> <Idih>
0.002

> <Tether>
0.000

$$$$
VeraChem MOL file


 13 12  0  0  0  0  0  0  0  0999 V2000     
   19.8252   17.6282   20.8431 C   0  0  0  0  0  0  0  0  0  0  0  0
   20.3404   16.6108   21.2617 O   0  5  0  0  0  0  0  0  0  0  0  0
   18.7589   17.6484   20.2611 O   0  0  0  0  0  0  0  0  0  0  0  0
   20.5717   18.9475   21.0249 C   0  0  0  0  0  0  0  0  0  0  0  0
   20.5679   19.4616   20.0563 H   0  0  0  0  0  0  0  0  0  0  0  0
   21.6198   18.7283   21.2630 H   0  0  0  0  0  0  0  0  0  0  0  0
   19.9622   19.8779   22.1048 C   0  0  0  0  0  0  0  0  0  0  0  0
   20.4635   20.8546   22.0629 H   0  0  0  0  0  0  0  0  0  0  0  0
   18.9016   20.0576   21.8793 H   0  0  0  0  0  0  0  0  0  0  0  0
   20.1016   19.3005   23.5285 C   0  0  0  0  0  0  0  0  0  0  0  0
   21.1566   19.1341   23.7829 H   0  0  0  0  0  0  0  0  0  0  0  0
   19.6786   19.9915   24.2693 H   0  0  0  0  0  0  0  0  0  0  0  0
   19.5730   18.3423   23.6193 H   0  0  0  0  0  0  0  0  0  0  0  0
  1  2  1  0  0  0  0
  1  3  2  0  0  0  0
  1  4  1  0  0  0  0
  4  5  1  0  0  0  0
  4  6  1  0  0  0  0
  4  7  1  0  0  0  0
  7  8  1  0  0  0  0
  7  9  1  0  0  0  0
  7 10  1  0  0  0  0
 10 11  1  0  0  0  0
 10 12  1  0  0  0  0
 10 13  1  0  0  0  0
M  END
> <VConfSearch Rank>
996

> <Conf_Id>
36

> <Delta U+W>
0.272

> <U+W>
-58.060

> <U>
9.781

> <W>
-67.841

> <W(PB)>
-69.537

> <W(SA)>
1.696

> <Valence>
6.123

> <Coulomb>
3.449

> <VdW>
0.209

> <VdW6>
-3.762

> <VdW12>
3.972

> <Bond>
0.078

> <Angle>
2.428

> <Pdih>
3.616

> <Idih>
0.002

> <Tether>
0.000

$$$$
VeraChem MOL file


 13 12  0  0  0  0  0  0  0  0999 V2000     
   21.7448   19.6957   20.7726 C   0  0  0  0  0  0  0  0  0  0  0  0
   21.4904   20.8823   20.7050 O   0  5  0  0  0  0  0  0  0  0  0  0
   22.7569   19.2089   20.3106 O   0  0  0  0  0  0  0  0  0  0  0  0
   20.7650   18.7459   21.4645 C   0  0  0  0  0  0  0  0  0  0  0  0
   21.3117   18.2405   22.2695 H   0  0  0  0  0  0  0  0  0  0  0  0
   20.4846   17.9763   20.7355 H   0  0  0  0  0  0  0  0  0  0  0  0
   19.4873   19.4120   22.0387 C   0  0  0  0  0  0  0  0  0  0  0  0
   19.7706   20.1849   22.7668 H   0  0  0  0  0  0  0  0  0  0  0  0
   18.9425   19.9204   21.2310 H   0  0  0  0  0  0  0  0  0  0  0  0
   18.5622   18.3803   22.7152 C   0  0  0  0  0  0  0  0  0  0  0  0
   19.0743   17.8796   23.5474 H   0  0  0  0  0  0  0  0  0  0  0  0
   17.6645   18.8697   23.1149 H   0  0  0  0  0  0  0  0  0  0  0  0
   18.2395   17.6129   21.9993 H   0  0  0  0  0  0  0  0  0  0  0  0
  1  2  1  0  0  0  0
  1  3  2  0  0  0  0
  1  4  1  0  0  0  0
  4  5  1  0  0  0  0
  4  6  1  0  0  0  0
  4  7  1  0  0  0  0
  7  8  1  0  0  0  0
  7  9  1  0  0  0  0
  7 10  1  0  0  0  0
 10 11  1  0  0  0  0
 10 12  1  0  0  0  0
 10 13  1  0  0  0  0
M  END
> <VConfSearch Rank>
997

> <Conf_Id>
0

> <Delta U+W>
0.000

> <U+W>
-58.332

> <U>
8.390

> <W>
-66.722

> <W(PB)>
-68.455

> <W(SA)>
1.733

> <Valence>
6.333

> <Coulomb>
1.215

> <VdW>
0.842

> <VdW6>
-3.344

> <VdW12>
4.186

> <Bond>
0.091

> <Angle>
2.713

> <Pdih>
3.529

> <Idih>
0.000

> <Tether>
0.000

$$$$
VeraChem MOL file


 13 12  0  0  0  0  0  0  0  0999 V2000     
   19.6448   18.1904   19.9293 C   0  0  0  0  0  0  0  0  0  0  0  0
   20.5342   18.3294   19.1137 O   0  5  0  0  0  0  0  0  0  0  0  0
   18.4823   18.0062   19.6295 O   0  0  0  0  0  0  0  0  0  0  0  0
   20.0043   18.2702   21.4091 C   0  0  0  0  0  0  0  0  0  0  0  0
   21.0191   17.8738   21.5358 H   0  0  0  0  0  0  0  0  0  0  0  0
   19.3270   17.6073   21.9612 H   0  0  0  0  0  0  0  0  0  0  0  0
   19.9199   19.7086   21.9746 C   0  0  0  0  0  0  0  0  0  0  0  0
   20.5947   20.3653   21.4079 H   0  0  0  0  0  0  0  0  0  0  0  0
   18.9022   20.0987   21.8334 H   0  0  0  0  0  0  0  0  0  0  0  0
   20.2888   19.7554   23.4709 C   0  0  0  0  0  0  0  0  0  0  0  0
   20.2232   20.7823   23.8535 H   0  0  0  0  0  0  0  0  0  0  0  0
   19.6085   19.1290   24.0629 H   0  0  0  0  0  0  0  0  0  0  0  0
   21.3139   19.3977   23.6341 H   0  0  0  0  0  0  0  0  0  0  0  0
  1  2  1  0  0  0  0
  1  3  2  0  0  0  0
  1  4  1  0  0  0  0
  4  5  1  0  0  0  0
  4  6  1  0  0  0  0
  4  7  1  0  0  0  0
  7  8  1  0  0  0  0
  7  9  1  0  0  0  0
  7 10  1  0  0  0  0
 10 11  1  0  0  0  0
 10 12  1  0  0  0  0
 10 13  1  0  0  0  0
M  END
> <VConfSearch Rank>
998

> <Conf_Id>
1

> <Delta U+W>
-1.339

> <U+W>
-59.672

> <U>
7.389

> <W>
-67.061

> <W(PB)>
-68.767

> <W(SA)>
1.707

> <Valence>
5.822

> <Coulomb>
1.255

> <VdW>
0.312

> <VdW6>
-3.061

> <VdW12>
3.372

> <Bond>
0.059

> <Angle>
2.241

> <Pdih>
3.522

> <Idih>
0.000

> <Tether>
0.000

$$$$
VeraChem MOL file


 13 12  0  0  0  0  0  0  0  0999 V2000     
   20.5759   19.8232   20.4884 C   0  0  0  0  0  0  0  0  0  0  0  0
   21.0265   19.1312   19.5972 O   0  5  0  0  0  0  0  0  0  0  0  0
   19.8072   20.7443   20.2974 O   0  0  0  0  0  0  0  0  0  0  0  0
   21.0291   19.5409   21.9187 C   0  0  0  0  0  0  0  0  0  0  0  0
   20.8032   20.4173   22.5384 H   0  0  0  0  0  0  0  0  0  0  0  0
   22.1207   19.4381   21.9016 H   0  0  0  0  0  0  0  0  0  0  0  0
   20.4012   18.2688   22.5439 C   0  0  0  0  0  0  0  0  0  0  0  0
   20.5980   17.4043   21.8945 H   0  0  0  0  0  0  0  0  0  0  0  0
   20.8919   18.0601   23.5044 H   0  0  0  0  0  0  0  0  0  0  0  0
   18.8826   18.4122   22.7745 C   0  0  0  0  0  0  0  0  0  0  0  0
   18.3534   18.5780   21.8267 H   0  0  0  0  0  0  0  0  0  0  0  0
   18.4738   17.5036   23.2354 H   0  0  0  0  0  0  0  0  0  0  0  0
   18.6648   19.2580   23.4398 H   0  0  0  0  0  0  0  0  0  0  0  0
  1  2  1  0  0  0  0
  1  3  2  0  0  0  0
  1  4  1  0  0  0  0
  4  5  1  0  0  0  0
  4  6  1  0  0  0  0
  4  7  1  0  0  0  0
  7  8  1  0  0  0  0
  7  9  1  0  0  0  0
  7 10  1  0  0  0  0
 10 11  1  0  0  0  0
 10 12  1  0  0  0  0
 10 13  1  0  0  0  0
M  END
> <VConfSearch Rank>
999

> <Conf_Id>
4

> <Delta U+W>
0.281

> <U+W>
-58.051

> <U>
9.781

> <W>
-67.832

> <W(PB)>
-69.535

> <W(SA)>
1.703

> <Valence>
6.123

> <Coulomb>
3.449

> <VdW>
0.209

> <VdW6>
-3.762

> <VdW12>
3.972

> <Bond>
0.078

> <Angle>
2.428

> <Pdih>
3.616

> <Idih>
0.002

> <Tether>
0.000

$$$$
VeraChem MOL file


 13 12  0  0  0  0  0  0  0  0999 V2000     
   20.9417   17.9689   20.7588 C   0  0  0  0  0  0  0  0  0  0  0  0
   20.5464   16.8224   20.8310 O   0  5  0  0  0  0  0  0  0  0  0  0
   21.1969   18.5242   19.7088 O   0  0  0  0  0  0  0  0  0  0  0  0
   21.1646   18.7428   22.0557 C   0  0  0  0  0  0  0  0  0  0  0  0
   22.1551   19.2088   21.9924 H   0  0  0  0  0  0  0  0  0  0  0  0
   21.2027   18.0297   22.8884 H   0  0  0  0  0  0  0  0  0  0  0  0
   20.0987   19.8333   22.3351 C   0  0  0  0  0  0  0  0  0  0  0  0
   20.4167   20.4348   23.1977 H   0  0  0  0  0  0  0  0  0  0  0  0
   20.0395   20.5180   21.4774 H   0  0  0  0  0  0  0  0  0  0  0  0
   18.7053   19.2370   22.6229 C   0  0  0  0  0  0  0  0  0  0  0  0
   18.7374   18.5660   23.4913 H   0  0  0  0  0  0  0  0  0  0  0  0
   17.9802   20.0333   22.8355 H   0  0  0  0  0  0  0  0  0  0  0  0
   18.3358   18.6641   21.7620 H   0  0  0  0  0  0  0  0  0  0  0  0
  1  2  1  0  0  0  0
  1  3  2  0  0  0  0
  1  4  1  0  0  0  0
  4  5  1  0  0  0  0
  4  6  1  0  0  0  0
  4  7  1  0  0  0  0
  7  8  1  0  0  0  0
  7  9  1  0  0  0  0
  7 10  1  0  0  0  0
 10 11  1  0  0  0  0
 10 12  1  0  0  0  0
 10 13  1  0  0  0  0
M  END
> <VConfSearch Rank>
1000

> <Conf_Id>
36

> <Delta U+W>
0.272

> <U+W>
-58.060

> <U>
9.781

> <W>
-67.841

> <W(PB)>
-69.537

> <W(SA)>
1.696

> <Valence>
6.123

> <Coulomb>
3.449

> <VdW>
0.209

> <VdW6>
-3.762

> <VdW12>
3.972

> <Bond>
0.078

> <Angle>
2.428

> <Pdih>
3.616

> <Idih>
0.002

> <Tether>
0.000

$$$$
